data_image0
_cell_length_a       15.64
_cell_length_b       15.64
_cell_length_c       15.64
_cell_angle_alpha    159.663
_cell_angle_beta     159.663
_cell_angle_gamma    28.9158

loop_
  _atom_site_label
  _atom_site_occupancy
  _atom_site_fract_x
  _atom_site_fract_y
  _atom_site_fract_z
  _atom_site_thermal_displace_type
  _atom_site_B_iso_or_equiv
  _atom_site_type_symbol
  K1       1.0000 0.75000  0.25000  0.50000  Biso   1.000  K
  K2       1.0000 0.25000  0.75000  0.50000  Biso   1.000  K
  Ca1      1.0000 0.57405  0.07405  0.50000  Biso   1.000  Ca
  Ca2      1.0000 0.07405  0.57405  0.50000  Biso   1.000  Ca
  Ca3      1.0000 0.92595  0.42595  0.50000  Biso   1.000  Ca
  Ca4      1.0000 0.42595  0.92595  0.50000  Biso   1.000  Ca
  Nb1      1.0000 0.00000  -0.00000  0.00000  Biso   1.000  Nb
  Nb2      1.0000 0.50000  0.50000  0.00000  Biso   1.000  Nb
  Nb3      1.0000 0.13883  0.13883  0.00000  Biso   1.000  Nb
  Nb4      1.0000 0.63883  0.63883  0.00000  Biso   1.000  Nb
  Nb5      1.0000 0.86117  0.86117  0.00000  Biso   1.000  Nb
  Nb6      1.0000 0.36117  0.36117  -0.00000  Biso   1.000  Nb
  O1       1.0000 0.22501  0.72501  0.95001  Biso   1.000  O
  O2       1.0000 0.77499  0.27499  0.04999  Biso   1.000  O
  O3       1.0000 0.72501  0.77499  0.50000  Biso   1.000  O
  O4       1.0000 0.27499  0.22501  0.50000  Biso   1.000  O
  O5       1.0000 0.06408  0.06408  0.00000  Biso   1.000  O
  O6       1.0000 0.56408  0.56408  0.00000  Biso   1.000  O
  O7       1.0000 0.93592  0.93592  0.00000  Biso   1.000  O
  O8       1.0000 0.43592  0.43592  0.00000  Biso   1.000  O
  O9       1.0000 0.37530  0.87530  0.00070  Biso   1.000  O
  O10      1.0000 0.87460  0.37460  0.99930  Biso   1.000  O
  O11      1.0000 0.62470  0.12470  0.99930  Biso   1.000  O
  O12      1.0000 0.12540  0.62540  0.00070  Biso   1.000  O
  O13      1.0000 0.62540  0.62470  0.50000  Biso   1.000  O
  O14      1.0000 0.12470  0.12540  0.50000  Biso   1.000  O
  O15      1.0000 0.87530  0.87460  0.50000  Biso   1.000  O
  O16      1.0000 0.37460  0.37530  0.50000  Biso   1.000  O
  O17      1.0000 0.19732  0.19732  0.00000  Biso   1.000  O
  O18      1.0000 0.69732  0.69732  0.00000  Biso   1.000  O
  O19      1.0000 0.80268  0.80268  -0.00000  Biso   1.000  O
  O20      1.0000 0.30268  0.30268  0.00000  Biso   1.000  O
