data_image0
_cell_length_a       15.64
_cell_length_b       15.64
_cell_length_c       15.64
_cell_angle_alpha    159.663
_cell_angle_beta     28.9158
_cell_angle_gamma    159.663

loop_
  _atom_site_label
  _atom_site_occupancy
  _atom_site_fract_x
  _atom_site_fract_y
  _atom_site_fract_z
  _atom_site_thermal_displace_type
  _atom_site_B_iso_or_equiv
  _atom_site_type_symbol
  K1       1.0000 0.24948  0.49948  0.75000  Biso   1.000  K
  K2       1.0000 0.75052  0.50052  0.25000  Biso   1.000  K
  Ca1      1.0000 0.06674  0.49269  0.57405  Biso   1.000  Ca
  Ca2      1.0000 0.58136  0.50731  0.07405  Biso   1.000  Ca
  Ca3      1.0000 0.41864  0.49269  0.92595  Biso   1.000  Ca
  Ca4      1.0000 0.93326  0.50731  0.42595  Biso   1.000  Ca
  Nb1      1.0000 0.00000  0.00000  0.00000  Biso   1.000  Nb
  Nb2      1.0000 0.50000  0.00000  0.50000  Biso   1.000  Nb
  Nb3      1.0000 0.13956  0.00073  0.13883  Biso   1.000  Nb
  Nb4      1.0000 0.63810  0.99927  0.63883  Biso   1.000  Nb
  Nb5      1.0000 0.86044  0.99927  0.86117  Biso   1.000  Nb
  Nb6      1.0000 0.36190  0.00073  0.36117  Biso   1.000  Nb
  O1       1.0000 0.73584  0.00000  0.23584  Biso   1.000  O
  O2       1.0000 0.26416  -0.00000  0.76416  Biso   1.000  O
  O3       1.0000 0.73584  0.50000  0.73584  Biso   1.000  O
  O4       1.0000 0.26416  0.50000  0.26416  Biso   1.000  O
  O5       1.0000 0.03958  0.97550  0.06408  Biso   1.000  O
  O6       1.0000 0.58858  0.02450  0.56408  Biso   1.000  O
  O7       1.0000 0.96042  0.02450  0.93592  Biso   1.000  O
  O8       1.0000 0.41142  0.97550  0.43592  Biso   1.000  O
  O9       1.0000 0.88132  -0.00000  0.38132  Biso   1.000  O
  O10      1.0000 0.36858  0.00000  0.86858  Biso   1.000  O
  O11      1.0000 0.11868  -0.00000  0.61868  Biso   1.000  O
  O12      1.0000 0.63142  0.00000  0.13142  Biso   1.000  O
  O13      1.0000 0.63142  0.50000  0.63142  Biso   1.000  O
  O14      1.0000 0.11868  0.50000  0.11868  Biso   1.000  O
  O15      1.0000 0.88132  0.50000  0.88132  Biso   1.000  O
  O16      1.0000 0.36858  0.50000  0.36858  Biso   1.000  O
  O17      1.0000 0.20304  0.00572  0.19732  Biso   1.000  O
  O18      1.0000 0.69160  0.99428  0.69732  Biso   1.000  O
  O19      1.0000 0.79696  0.99428  0.80268  Biso   1.000  O
  O20      1.0000 0.30840  0.00572  0.30268  Biso   1.000  O
