data_image0
_cell_length_a       15.64
_cell_length_b       15.64
_cell_length_c       15.64
_cell_angle_alpha    159.663
_cell_angle_beta     28.9158
_cell_angle_gamma    159.663

loop_
  _atom_site_label
  _atom_site_occupancy
  _atom_site_fract_x
  _atom_site_fract_y
  _atom_site_fract_z
  _atom_site_thermal_displace_type
  _atom_site_B_iso_or_equiv
  _atom_site_type_symbol
  K1       1.0000 0.00000  0.50000  0.50000  Biso   1.000  K
  K2       1.0000 0.50000  0.50000  0.00000  Biso   1.000  K
  Ca1      1.0000 0.84655  0.52250  0.32405  Biso   1.000  Ca
  Ca2      1.0000 0.30155  0.47750  0.82405  Biso   1.000  Ca
  Ca3      1.0000 0.15345  0.47750  0.67595  Biso   1.000  Ca
  Ca4      1.0000 0.69845  0.52250  0.17595  Biso   1.000  Ca
  Nb1      1.0000 0.75211  0.00211  0.75000  Biso   1.000  Nb
  Nb2      1.0000 0.24789  0.99789  0.25000  Biso   1.000  Nb
  Nb3      1.0000 0.88258  0.99375  0.88883  Biso   1.000  Nb
  Nb4      1.0000 0.39508  0.00625  0.38883  Biso   1.000  Nb
  Nb5      1.0000 0.60492  0.99375  0.61117  Biso   1.000  Nb
  Nb6      1.0000 0.11742  0.00625  0.11117  Biso   1.000  Nb
  O1       1.0000 0.50000  0.00000  0.00000  Biso   1.000  O
  O2       1.0000 0.00000  0.00000  0.50000  Biso   1.000  O
  O3       1.0000 0.50000  0.50000  0.50000  Biso   1.000  O
  O4       1.0000 0.00000  0.50000  0.00000  Biso   1.000  O
  O5       1.0000 0.83353  0.01945  0.81408  Biso   1.000  O
  O6       1.0000 0.29463  0.98055  0.31408  Biso   1.000  O
  O7       1.0000 0.70537  0.01945  0.68592  Biso   1.000  O
  O8       1.0000 0.16647  0.98055  0.18592  Biso   1.000  O
  O9       1.0000 0.61775  0.00000  0.11775  Biso   1.000  O
  O10      1.0000 0.13215  0.00000  0.63215  Biso   1.000  O
  O11      1.0000 0.86785  0.00000  0.36785  Biso   1.000  O
  O12      1.0000 0.38225  0.00000  0.88225  Biso   1.000  O
  O13      1.0000 0.38225  0.50000  0.38225  Biso   1.000  O
  O14      1.0000 0.86785  0.50000  0.86785  Biso   1.000  O
  O15      1.0000 0.61775  0.50000  0.61775  Biso   1.000  O
  O16      1.0000 0.13215  0.50000  0.13215  Biso   1.000  O
  O17      1.0000 0.93647  0.98915  0.94732  Biso   1.000  O
  O18      1.0000 0.45817  0.01085  0.44732  Biso   1.000  O
  O19      1.0000 0.54183  0.98915  0.55268  Biso   1.000  O
  O20      1.0000 0.06353  0.01085  0.05268  Biso   1.000  O
