data_image0
_cell_length_a       5.52224
_cell_length_b       15.1447
_cell_length_c       5.52224
_cell_angle_alpha    90
_cell_angle_beta     90
_cell_angle_gamma    90

loop_
  _atom_site_label
  _atom_site_occupancy
  _atom_site_fract_x
  _atom_site_fract_y
  _atom_site_fract_z
  _atom_site_thermal_displace_type
  _atom_site_B_iso_or_equiv
  _atom_site_type_symbol
  K1       1.0000 0.00000  0.50000  0.00000  Biso   1.000  K
  K2       1.0000 0.50000  0.50000  0.50000  Biso   1.000  K
  Ca1      1.0000 0.00000  0.85190  0.99269  Biso   1.000  Ca
  Ca2      1.0000 0.50000  0.85190  0.50731  Biso   1.000  Ca
  Ca3      1.0000 0.50000  0.14810  0.49269  Biso   1.000  Ca
  Ca4      1.0000 0.00000  0.14810  0.00731  Biso   1.000  Ca
  Nb1      1.0000 0.50000  0.00000  0.00000  Biso   1.000  Nb
  Nb2      1.0000 0.00000  0.00000  0.50000  Biso   1.000  Nb
  Nb3      1.0000 0.50000  0.72234  0.00071  Biso   1.000  Nb
  Nb4      1.0000 0.00000  0.72234  0.49929  Biso   1.000  Nb
  Nb5      1.0000 0.50000  0.27766  0.99929  Biso   1.000  Nb
  Nb6      1.0000 0.00000  0.27766  0.50071  Biso   1.000  Nb
  O1       1.0000 0.25000  0.02832  0.75000  Biso   1.000  O
  O2       1.0000 0.75000  0.97168  0.25000  Biso   1.000  O
  O3       1.0000 0.75000  0.02832  0.75000  Biso   1.000  O
  O4       1.0000 0.25000  0.97168  0.25000  Biso   1.000  O
  O5       1.0000 0.50000  0.87184  0.97549  Biso   1.000  O
  O6       1.0000 0.00000  0.87184  0.52451  Biso   1.000  O
  O7       1.0000 0.50000  0.12816  0.02451  Biso   1.000  O
  O8       1.0000 0.00000  0.12816  0.47549  Biso   1.000  O
  O9       1.0000 0.25000  0.73736  0.75000  Biso   1.000  O
  O10      1.0000 0.75000  0.76284  0.25000  Biso   1.000  O
  O11      1.0000 0.75000  0.26264  0.25000  Biso   1.000  O
  O12      1.0000 0.25000  0.23716  0.75000  Biso   1.000  O
  O13      1.0000 0.75000  0.23716  0.75000  Biso   1.000  O
  O14      1.0000 0.25000  0.26264  0.25000  Biso   1.000  O
  O15      1.0000 0.75000  0.73736  0.75000  Biso   1.000  O
  O16      1.0000 0.25000  0.76284  0.25000  Biso   1.000  O
  O17      1.0000 0.50000  0.60536  0.00566  Biso   1.000  O
  O18      1.0000 0.00000  0.60536  0.49434  Biso   1.000  O
  O19      1.0000 0.50000  0.39464  0.99434  Biso   1.000  O
  O20      1.0000 0.00000  0.39464  0.50566  Biso   1.000  O
