data_image0
_cell_length_a       15.64
_cell_length_b       15.64
_cell_length_c       3.90481
_cell_angle_alpha    90
_cell_angle_beta     90
_cell_angle_gamma    151.084

loop_
  _atom_site_label
  _atom_site_occupancy
  _atom_site_fract_x
  _atom_site_fract_y
  _atom_site_fract_z
  _atom_site_thermal_displace_type
  _atom_site_B_iso_or_equiv
  _atom_site_type_symbol
  K1       1.0000 -0.00000  0.00000  0.00000  Biso   1.000  K
  K2       1.0000 0.50000  0.50000  0.00000  Biso   1.000  K
  Ca1      1.0000 0.17885  0.82115  0.00000  Biso   1.000  Ca
  Ca2      1.0000 0.67305  0.32695  0.00000  Biso   1.000  Ca
  Ca3      1.0000 0.32695  0.67305  0.00000  Biso   1.000  Ca
  Ca4      1.0000 0.82115  0.17885  0.00000  Biso   1.000  Ca
  Nb1      1.0000 -0.00000  0.50000  0.50000  Biso   1.000  Nb
  Nb2      1.0000 0.50000  0.00000  0.50000  Biso   1.000  Nb
  Nb3      1.0000 0.86173  0.63939  0.50000  Biso   1.000  Nb
  Nb4      1.0000 0.36061  0.13827  0.50000  Biso   1.000  Nb
  Nb5      1.0000 0.13827  0.36061  0.50000  Biso   1.000  Nb
  Nb6      1.0000 0.63939  0.86173  0.50000  Biso   1.000  Nb
  O1       1.0000 -0.00000  0.50000  0.00000  Biso   1.000  O
  O2       1.0000 0.50000  0.00000  0.00000  Biso   1.000  O
  O3       1.0000 0.77152  0.22848  0.50000  Biso   1.000  O
  O4       1.0000 0.22848  0.77152  0.50000  Biso   1.000  O
  O5       1.0000 0.91913  0.54729  0.50000  Biso   1.000  O
  O6       1.0000 0.45271  0.08087  0.50000  Biso   1.000  O
  O7       1.0000 0.08087  0.45271  0.50000  Biso   1.000  O
  O8       1.0000 0.54729  0.91913  0.50000  Biso   1.000  O
  O9       1.0000 0.87710  0.62700  0.00000  Biso   1.000  O
  O10      1.0000 0.37300  0.12290  0.00000  Biso   1.000  O
  O11      1.0000 0.12290  0.37300  0.00000  Biso   1.000  O
  O12      1.0000 0.62700  0.87710  0.00000  Biso   1.000  O
  O13      1.0000 0.86567  0.13433  0.50000  Biso   1.000  O
  O14      1.0000 0.38423  0.61577  0.50000  Biso   1.000  O
  O15      1.0000 0.61577  0.38423  0.50000  Biso   1.000  O
  O16      1.0000 0.13433  0.86567  0.50000  Biso   1.000  O
  O17      1.0000 0.80618  0.70082  0.50000  Biso   1.000  O
  O18      1.0000 0.29918  0.19382  0.50000  Biso   1.000  O
  O19      1.0000 0.19382  0.29918  0.50000  Biso   1.000  O
  O20      1.0000 0.70082  0.80618  0.50000  Biso   1.000  O
