data_image0
_cell_length_a       15.6806
_cell_length_b       15.6806
_cell_length_c       7.8528
_cell_angle_alpha    90
_cell_angle_beta     90
_cell_angle_gamma    150.998

_symmetry_space_group_name_H-M    "P 1"
_symmetry_int_tables_number       1

loop_
  _symmetry_equiv_pos_as_xyz
  'x, y, z'

loop_
  _atom_site_label
  _atom_site_occupancy
  _atom_site_fract_x
  _atom_site_fract_y
  _atom_site_fract_z
  _atom_site_thermal_displace_type
  _atom_site_B_iso_or_equiv
  _atom_site_type_symbol
  K1       1.0000 0.00000  0.00000  0.75000  Biso   1.000  K
  K2       1.0000 0.50000  0.50000  0.75000  Biso   1.000  K
  K3       1.0000 0.00000  0.00000  0.25000  Biso   1.000  K
  K4       1.0000 0.50000  0.50000  0.25000  Biso   1.000  K
  Pb1      1.0000 0.81757  0.18243  0.75000  Biso   1.000  Pb
  Pb2      1.0000 0.32917  0.67083  0.75000  Biso   1.000  Pb
  Pb3      1.0000 0.81757  0.18243  0.25000  Biso   1.000  Pb
  Pb4      1.0000 0.32917  0.67083  0.25000  Biso   1.000  Pb
  Pb5      1.0000 0.67083  0.32917  0.25000  Biso   1.000  Pb
  Pb6      1.0000 0.18243  0.81757  0.25000  Biso   1.000  Pb
  Pb7      1.0000 0.67083  0.32917  0.75000  Biso   1.000  Pb
  Pb8      1.0000 0.18243  0.81757  0.75000  Biso   1.000  Pb
  Nb1      1.0000 0.00000  0.50000  0.00000  Biso   1.000  Nb
  Nb2      1.0000 0.50000  0.00000  0.00000  Biso   1.000  Nb
  Nb3      1.0000 0.00000  0.50000  0.50000  Biso   1.000  Nb
  Nb4      1.0000 0.50000  0.00000  0.50000  Biso   1.000  Nb
  Ta1      1.0000 0.14245  0.35529  0.00000  Biso   1.000  Ta
  Ta2      1.0000 0.64471  0.85755  0.00000  Biso   1.000  Ta
  Ta3      1.0000 0.14245  0.35529  0.50000  Biso   1.000  Ta
  Ta4      1.0000 0.64471  0.85755  0.50000  Biso   1.000  Ta
  Ta5      1.0000 0.85755  0.64471  0.00000  Biso   1.000  Ta
  Ta6      1.0000 0.35529  0.14245  0.00000  Biso   1.000  Ta
  Ta7      1.0000 0.85755  0.64471  0.50000  Biso   1.000  Ta
  Ta8      1.0000 0.35529  0.14245  0.50000  Biso   1.000  Ta
  O1       1.0000 0.05000  0.55000  0.75000  Biso   1.000  O
  O2       1.0000 0.45000  0.95000  0.75000  Biso   1.000  O
  O3       1.0000 0.95000  0.45000  0.25000  Biso   1.000  O
  O4       1.0000 0.55000  0.05000  0.25000  Biso   1.000  O
  O5       1.0000 0.20696  0.79304  0.05000  Biso   1.000  O
  O6       1.0000 0.79304  0.20696  0.95000  Biso   1.000  O
  O7       1.0000 0.20696  0.79304  0.45000  Biso   1.000  O
  O8       1.0000 0.79304  0.20696  0.55000  Biso   1.000  O
  O9       1.0000 0.09871  0.46847  0.00000  Biso   1.000  O
  O10      1.0000 0.53153  0.90129  0.00000  Biso   1.000  O
  O11      1.0000 0.09871  0.46847  0.50000  Biso   1.000  O
  O12      1.0000 0.53153  0.90129  0.50000  Biso   1.000  O
  O13      1.0000 0.90129  0.53153  0.00000  Biso   1.000  O
  O14      1.0000 0.46847  0.09871  0.00000  Biso   1.000  O
  O15      1.0000 0.90129  0.53153  0.50000  Biso   1.000  O
  O16      1.0000 0.46847  0.09871  0.50000  Biso   1.000  O
  O17      1.0000 0.12638  0.36402  0.75000  Biso   1.000  O
  O18      1.0000 0.63598  0.87362  0.75000  Biso   1.000  O
  O19      1.0000 0.12776  0.36540  0.25000  Biso   1.000  O
  O20      1.0000 0.63460  0.87224  0.25000  Biso   1.000  O
  O21      1.0000 0.87362  0.63598  0.25000  Biso   1.000  O
  O22      1.0000 0.36402  0.12638  0.25000  Biso   1.000  O
  O23      1.0000 0.87224  0.63460  0.75000  Biso   1.000  O
  O24      1.0000 0.36540  0.12776  0.75000  Biso   1.000  O
  O25      1.0000 0.13738  0.86262  0.99931  Biso   1.000  O
  O26      1.0000 0.60026  0.39974  0.00069  Biso   1.000  O
  O27      1.0000 0.13738  0.86262  0.50069  Biso   1.000  O
  O28      1.0000 0.60026  0.39974  0.49931  Biso   1.000  O
  O29      1.0000 0.39974  0.60026  0.99931  Biso   1.000  O
  O30      1.0000 0.86262  0.13738  0.00069  Biso   1.000  O
  O31      1.0000 0.39974  0.60026  0.50069  Biso   1.000  O
  O32      1.0000 0.86262  0.13738  0.49931  Biso   1.000  O
  O33      1.0000 0.19487  0.29113  0.00000  Biso   1.000  O
  O34      1.0000 0.70887  0.80513  0.00000  Biso   1.000  O
  O35      1.0000 0.19487  0.29113  0.50000  Biso   1.000  O
  O36      1.0000 0.70887  0.80513  0.50000  Biso   1.000  O
  O37      1.0000 0.80513  0.70887  0.00000  Biso   1.000  O
  O38      1.0000 0.29113  0.19487  0.00000  Biso   1.000  O
  O39      1.0000 0.80513  0.70887  0.50000  Biso   1.000  O
  O40      1.0000 0.29113  0.19487  0.50000  Biso   1.000  O
