data_image0
_cell_length_a       15.6806
_cell_length_b       15.6806
_cell_length_c       15.6806
_cell_angle_alpha    29.0021
_cell_angle_beta     159.603
_cell_angle_gamma    159.603

_symmetry_space_group_name_H-M    "P 1"
_symmetry_int_tables_number       1

loop_
  _symmetry_equiv_pos_as_xyz
  'x, y, z'

loop_
  _atom_site_label
  _atom_site_occupancy
  _atom_site_fract_x
  _atom_site_fract_y
  _atom_site_fract_z
  _atom_site_thermal_displace_type
  _atom_site_B_iso_or_equiv
  _atom_site_type_symbol
  K1       1.0000 0.75000  0.75000  0.00000  Biso   1.000  K
  K2       1.0000 0.75000  0.25000  0.50000  Biso   1.000  K
  Pb1      1.0000 0.79499  0.92663  0.22162  Biso   1.000  Pb
  Pb2      1.0000 0.70501  0.42663  0.63164  Biso   1.000  Pb
  Pb3      1.0000 0.70501  0.57337  0.77838  Biso   1.000  Pb
  Pb4      1.0000 0.79499  0.07337  0.36836  Biso   1.000  Pb
  Nb1      1.0000 0.24577  0.00000  0.74577  Biso   1.000  Nb
  Nb2      1.0000 0.25423  0.50000  0.25423  Biso   1.000  Nb
  Ta1      1.0000 0.26250  0.85642  0.61892  Biso   1.000  Ta
  Ta2      1.0000 0.23750  0.35642  0.09392  Biso   1.000  Ta
  Ta3      1.0000 0.26250  0.14358  0.90608  Biso   1.000  Ta
  Ta4      1.0000 0.23750  0.64358  0.38108  Biso   1.000  Ta
  O1       1.0000 0.34999  0.30000  0.55000  Biso   1.000  O
  O2       1.0000 0.15001  0.70000  0.95000  Biso   1.000  O
  O3       1.0000 0.75000  0.20000  0.05000  Biso   1.000  O
  O4       1.0000 0.75000  0.80000  0.45000  Biso   1.000  O
  O5       1.0000 0.21112  0.93488  0.64600  Biso   1.000  O
  O6       1.0000 0.28888  0.43488  0.22376  Biso   1.000  O
  O7       1.0000 0.21112  0.06512  0.77624  Biso   1.000  O
  O8       1.0000 0.28888  0.56512  0.35400  Biso   1.000  O
  O9       1.0000 0.24862  0.10375  0.35375  Biso   1.000  O
  O10      1.0000 0.25138  0.63389  0.88389  Biso   1.000  O
  O11      1.0000 0.25138  0.86749  0.11749  Biso   1.000  O
  O12      1.0000 0.24862  0.39487  0.64487  Biso   1.000  O
  O13      1.0000 0.75000  0.36749  0.11611  Biso   1.000  O
  O14      1.0000 0.75000  0.89487  0.64625  Biso   1.000  O
  O15      1.0000 0.75000  0.13389  0.88251  Biso   1.000  O
  O16      1.0000 0.75000  0.60375  0.35513  Biso   1.000  O
  O17      1.0000 0.27170  0.79813  0.56983  Biso   1.000  O
  O18      1.0000 0.22830  0.29813  0.02643  Biso   1.000  O
  O19      1.0000 0.27170  0.20187  0.97357  Biso   1.000  O
  O20      1.0000 0.22830  0.70187  0.43017  Biso   1.000  O
