data_image0
_cell_length_a       15.6806
_cell_length_b       5.55277
_cell_length_c       15.6806
_cell_angle_alpha    79.8016
_cell_angle_beta     20.3969
_cell_angle_gamma    79.8016

_symmetry_space_group_name_H-M    "P 1"
_symmetry_int_tables_number       1

loop_
  _symmetry_equiv_pos_as_xyz
  'x, y, z'

loop_
  _atom_site_label
  _atom_site_occupancy
  _atom_site_fract_x
  _atom_site_fract_y
  _atom_site_fract_z
  _atom_site_thermal_displace_type
  _atom_site_B_iso_or_equiv
  _atom_site_type_symbol
  K1       1.0000 0.75000  0.25000  0.75000  Biso   1.000  K
  K2       1.0000 0.25000  0.75000  0.25000  Biso   1.000  K
  Pb1      1.0000 0.55608  0.40934  0.59066  Biso   1.000  Pb
  Pb2      1.0000 0.05608  0.90934  0.09066  Biso   1.000  Pb
  Pb3      1.0000 0.90934  0.05608  0.94392  Biso   1.000  Pb
  Pb4      1.0000 0.40934  0.55608  0.44392  Biso   1.000  Pb
  Nb1      1.0000 0.98320  0.48320  0.01680  Biso   1.000  Nb
  Nb2      1.0000 0.48320  0.98320  0.51680  Biso   1.000  Nb
  Ta1      1.0000 0.15580  0.36864  0.13136  Biso   1.000  Ta
  Ta2      1.0000 0.65580  0.86864  0.63136  Biso   1.000  Ta
  Ta3      1.0000 0.86864  0.65580  0.84420  Biso   1.000  Ta
  Ta4      1.0000 0.36864  0.15580  0.34420  Biso   1.000  Ta
  O1       1.0000 0.21979  0.81978  0.78021  Biso   1.000  O
  O2       1.0000 0.81978  0.21979  0.18022  Biso   1.000  O
  O3       1.0000 0.74185  0.74185  0.25815  Biso   1.000  O
  O4       1.0000 0.34184  0.34184  0.65816  Biso   1.000  O
  O5       1.0000 0.08820  0.45796  0.04204  Biso   1.000  O
  O6       1.0000 0.58820  0.95796  0.54204  Biso   1.000  O
  O7       1.0000 0.95796  0.58820  0.91180  Biso   1.000  O
  O8       1.0000 0.45796  0.08820  0.41180  Biso   1.000  O
  O9       1.0000 0.39160  0.62786  0.87076  Biso   1.000  O
  O10      1.0000 0.89022  0.12924  0.37214  Biso   1.000  O
  O11      1.0000 0.62786  0.39160  0.10978  Biso   1.000  O
  O12      1.0000 0.12924  0.89022  0.60840  Biso   1.000  O
  O13      1.0000 0.63206  0.89442  0.10558  Biso   1.000  O
  O14      1.0000 0.13068  0.39304  0.60696  Biso   1.000  O
  O15      1.0000 0.89442  0.63206  0.36794  Biso   1.000  O
  O16      1.0000 0.39304  0.13068  0.86932  Biso   1.000  O
  O17      1.0000 0.20927  0.30553  0.19447  Biso   1.000  O
  O18      1.0000 0.70927  0.80553  0.69447  Biso   1.000  O
  O19      1.0000 0.80553  0.70927  0.79073  Biso   1.000  O
  O20      1.0000 0.30553  0.20927  0.29073  Biso   1.000  O
