data_image0
_cell_length_a       15.6806
_cell_length_b       5.55277
_cell_length_c       15.6806
_cell_angle_alpha    79.8016
_cell_angle_beta     20.3969
_cell_angle_gamma    79.8016

_symmetry_space_group_name_H-M    "P 1"
_symmetry_int_tables_number       1

loop_
  _symmetry_equiv_pos_as_xyz
  'x, y, z'

loop_
  _atom_site_label
  _atom_site_occupancy
  _atom_site_fract_x
  _atom_site_fract_y
  _atom_site_fract_z
  _atom_site_thermal_displace_type
  _atom_site_B_iso_or_equiv
  _atom_site_type_symbol
  K1       1.0000 0.78367  0.21633  0.21633  Biso   1.000  K
  K2       1.0000 0.21633  0.78367  0.78367  Biso   1.000  K
  Pb1      1.0000 0.52799  0.43743  0.11875  Biso   1.000  Pb
  Pb2      1.0000 0.08417  0.88125  0.56257  Biso   1.000  Pb
  Pb3      1.0000 0.88125  0.08417  0.47201  Biso   1.000  Pb
  Pb4      1.0000 0.43743  0.52799  0.91583  Biso   1.000  Pb
  Nb1      1.0000 0.48320  0.98320  0.01680  Biso   1.000  Nb
  Nb2      1.0000 0.98320  0.48320  0.51680  Biso   1.000  Nb
  Ta1      1.0000 0.66226  0.87510  0.12490  Biso   1.000  Ta
  Ta2      1.0000 0.14934  0.36218  0.63782  Biso   1.000  Ta
  Ta3      1.0000 0.36218  0.14934  0.85066  Biso   1.000  Ta
  Ta4      1.0000 0.87510  0.66226  0.33774  Biso   1.000  Ta
  O1       1.0000 0.29185  0.29185  0.20815  Biso   1.000  O
  O2       1.0000 0.79185  0.79185  0.70815  Biso   1.000  O
  O3       1.0000 0.22868  0.81090  0.18910  Biso   1.000  O
  O4       1.0000 0.81090  0.22868  0.77132  Biso   1.000  O
  O5       1.0000 0.54903  0.91879  0.08121  Biso   1.000  O
  O6       1.0000 0.12737  0.49713  0.50287  Biso   1.000  O
  O7       1.0000 0.49713  0.12737  0.87263  Biso   1.000  O
  O8       1.0000 0.91879  0.54903  0.45097  Biso   1.000  O
  O9       1.0000 0.39373  0.13137  0.36863  Biso   1.000  O
  O10      1.0000 0.89373  0.63137  0.86863  Biso   1.000  O
  O11      1.0000 0.63137  0.89373  0.60627  Biso   1.000  O
  O12      1.0000 0.13137  0.39373  0.10627  Biso   1.000  O
  O13      1.0000 0.15241  0.86705  0.13295  Biso   1.000  O
  O14      1.0000 0.60469  0.41477  0.58523  Biso   1.000  O
  O15      1.0000 0.41477  0.60469  0.39531  Biso   1.000  O
  O16      1.0000 0.86705  0.15241  0.84759  Biso   1.000  O
  O17      1.0000 0.73481  0.83107  0.16893  Biso   1.000  O
  O18      1.0000 0.18373  0.27999  0.72001  Biso   1.000  O
  O19      1.0000 0.27999  0.18373  0.81627  Biso   1.000  O
  O20      1.0000 0.83107  0.73481  0.26519  Biso   1.000  O
