data_image0
_cell_length_a       15.6806
_cell_length_b       15.6806
_cell_length_c       5.55277
_cell_angle_alpha    100.198
_cell_angle_beta     100.198
_cell_angle_gamma    150.998

_symmetry_space_group_name_H-M    "P 1"
_symmetry_int_tables_number       1

loop_
  _symmetry_equiv_pos_as_xyz
  'x, y, z'

loop_
  _atom_site_label
  _atom_site_occupancy
  _atom_site_fract_x
  _atom_site_fract_y
  _atom_site_fract_z
  _atom_site_thermal_displace_type
  _atom_site_B_iso_or_equiv
  _atom_site_type_symbol
  K1       1.0000 0.21633  0.21633  0.46633  Biso   1.000  K
  K2       1.0000 0.78367  0.78367  0.53367  Biso   1.000  K
  Pb1      1.0000 0.43743  0.08417  0.49352  Biso   1.000  Pb
  Pb2      1.0000 0.88125  0.52799  0.43734  Biso   1.000  Pb
  Pb3      1.0000 0.08417  0.43743  0.49352  Biso   1.000  Pb
  Pb4      1.0000 0.52799  0.88125  0.43734  Biso   1.000  Pb
  Nb1      1.0000 0.48320  0.98320  0.96640  Biso   1.000  Nb
  Nb2      1.0000 0.98320  0.48320  0.96640  Biso   1.000  Nb
  Ta1      1.0000 0.36218  0.14934  0.01797  Biso   1.000  Ta
  Ta2      1.0000 0.87510  0.66226  0.03090  Biso   1.000  Ta
  Ta3      1.0000 0.66226  0.87510  0.03090  Biso   1.000  Ta
  Ta4      1.0000 0.14934  0.36218  0.01797  Biso   1.000  Ta
  O1       1.0000 0.79034  0.24923  0.53957  Biso   1.000  O
  O2       1.0000 0.24923  0.79034  0.53957  Biso   1.000  O
  O3       1.0000 0.81240  0.27129  0.08369  Biso   1.000  O
  O4       1.0000 0.27129  0.81240  0.08369  Biso   1.000  O
  O5       1.0000 0.49713  0.12737  0.08533  Biso   1.000  O
  O6       1.0000 0.91879  0.54903  0.00699  Biso   1.000  O
  O7       1.0000 0.54903  0.91879  0.00699  Biso   1.000  O
  O8       1.0000 0.12737  0.49713  0.08533  Biso   1.000  O
  O9       1.0000 0.61662  0.40284  0.51946  Biso   1.000  O
  O10      1.0000 0.14048  0.87898  0.51946  Biso   1.000  O
  O11      1.0000 0.40284  0.61662  0.51946  Biso   1.000  O
  O12      1.0000 0.87898  0.14048  0.51946  Biso   1.000  O
  O13      1.0000 0.88180  0.14330  0.02511  Biso   1.000  O
  O14      1.0000 0.40566  0.61944  0.02511  Biso   1.000  O
  O15      1.0000 0.61944  0.40566  0.02511  Biso   1.000  O
  O16      1.0000 0.14330  0.88180  0.02511  Biso   1.000  O
  O17      1.0000 0.27999  0.18373  0.98926  Biso   1.000  O
  O18      1.0000 0.83107  0.73481  0.04033  Biso   1.000  O
  O19      1.0000 0.73481  0.83107  0.04033  Biso   1.000  O
  O20      1.0000 0.18373  0.27999  0.98926  Biso   1.000  O
