data_image0
_cell_length_a       15.6806
_cell_length_b       15.6806
_cell_length_c       5.55277
_cell_angle_alpha    100.198
_cell_angle_beta     100.198
_cell_angle_gamma    150.998

_symmetry_space_group_name_H-M    "P 1"
_symmetry_int_tables_number       1

loop_
  _symmetry_equiv_pos_as_xyz
  'x, y, z'

loop_
  _atom_site_label
  _atom_site_occupancy
  _atom_site_fract_x
  _atom_site_fract_y
  _atom_site_fract_z
  _atom_site_thermal_displace_type
  _atom_site_B_iso_or_equiv
  _atom_site_type_symbol
  K1       1.0000 0.21633  0.21633  0.93266  Biso   1.000  K
  K2       1.0000 0.78367  0.78367  0.06734  Biso   1.000  K
  Pb1      1.0000 0.40973  0.05647  0.01119  Biso   1.000  Pb
  Pb2      1.0000 0.94353  0.59027  0.98881  Biso   1.000  Pb
  Pb3      1.0000 0.14645  0.49971  0.10117  Biso   1.000  Pb
  Pb4      1.0000 0.50029  0.85355  0.89883  Biso   1.000  Pb
  Nb1      1.0000 0.49577  0.99577  0.49577  Biso   1.000  Nb
  Nb2      1.0000 0.00423  0.50423  0.50423  Biso   1.000  Nb
  Ta1      1.0000 0.36246  0.14962  0.51250  Biso   1.000  Ta
  Ta2      1.0000 0.85038  0.63754  0.48750  Biso   1.000  Ta
  Ta3      1.0000 0.66254  0.87538  0.51250  Biso   1.000  Ta
  Ta4      1.0000 0.12462  0.33746  0.48750  Biso   1.000  Ta
  O1       1.0000 0.75000  0.25000  0.00000  Biso   1.000  O
  O2       1.0000 0.25000  0.75000  0.00000  Biso   1.000  O
  O3       1.0000 0.79111  0.20889  0.50000  Biso   1.000  O
  O4       1.0000 0.20889  0.79111  0.50000  Biso   1.000  O
  O5       1.0000 0.43517  0.06541  0.46112  Biso   1.000  O
  O6       1.0000 0.93459  0.56483  0.53888  Biso   1.000  O
  O7       1.0000 0.48707  0.85683  0.46112  Biso   1.000  O
  O8       1.0000 0.14317  0.51293  0.53888  Biso   1.000  O
  O9       1.0000 0.63320  0.36680  0.00000  Biso   1.000  O
  O10      1.0000 0.10444  0.89556  0.00000  Biso   1.000  O
  O11      1.0000 0.39556  0.60444  0.00000  Biso   1.000  O
  O12      1.0000 0.86680  0.13320  0.00000  Biso   1.000  O
  O13      1.0000 0.84294  0.15706  0.50000  Biso   1.000  O
  O14      1.0000 0.41942  0.58058  0.50000  Biso   1.000  O
  O15      1.0000 0.60934  0.39066  0.50000  Biso   1.000  O
  O16      1.0000 0.12830  0.87170  0.50000  Biso   1.000  O
  O17      1.0000 0.29429  0.19803  0.52170  Biso   1.000  O
  O18      1.0000 0.80197  0.70571  0.47830  Biso   1.000  O
  O19      1.0000 0.74911  0.84537  0.52170  Biso   1.000  O
  O20      1.0000 0.15463  0.25089  0.47830  Biso   1.000  O
