data_image0
_cell_length_a       7.8528
_cell_length_b       30.3622
_cell_length_c       7.8528
_cell_angle_alpha    90
_cell_angle_beta     90
_cell_angle_gamma    90

_symmetry_space_group_name_H-M    "P 1"
_symmetry_int_tables_number       1

loop_
  _symmetry_equiv_pos_as_xyz
  'x, y, z'

loop_
  _atom_site_label
  _atom_site_occupancy
  _atom_site_fract_x
  _atom_site_fract_y
  _atom_site_fract_z
  _atom_site_thermal_displace_type
  _atom_site_B_iso_or_equiv
  _atom_site_type_symbol
  K1       1.0000 0.32070  0.75000  0.28703  Biso   1.000  K
  K2       1.0000 0.32070  0.25000  0.35437  Biso   1.000  K
  K3       1.0000 0.17930  0.75000  0.85437  Biso   1.000  K
  K4       1.0000 0.17930  0.25000  0.78703  Biso   1.000  K
  K5       1.0000 0.82070  0.75000  0.21297  Biso   1.000  K
  K6       1.0000 0.82070  0.25000  0.14563  Biso   1.000  K
  K7       1.0000 0.67930  0.75000  0.64563  Biso   1.000  K
  K8       1.0000 0.67930  0.25000  0.71297  Biso   1.000  K
  Pb1      1.0000 0.25035  0.92663  0.27844  Biso   1.000  Pb
  Pb2      1.0000 0.25035  0.42663  0.22225  Biso   1.000  Pb
  Pb3      1.0000 0.24965  0.92663  0.72225  Biso   1.000  Pb
  Pb4      1.0000 0.24965  0.42663  0.77844  Biso   1.000  Pb
  Pb5      1.0000 0.75035  0.92663  0.22156  Biso   1.000  Pb
  Pb6      1.0000 0.75035  0.42663  0.27775  Biso   1.000  Pb
  Pb7      1.0000 0.74965  0.92663  0.77775  Biso   1.000  Pb
  Pb8      1.0000 0.74965  0.42663  0.72156  Biso   1.000  Pb
  Pb9      1.0000 0.24965  0.07337  0.77844  Biso   1.000  Pb
  Pb10     1.0000 0.24965  0.57337  0.72225  Biso   1.000  Pb
  Pb11     1.0000 0.25035  0.07337  0.22225  Biso   1.000  Pb
  Pb12     1.0000 0.25035  0.57337  0.27844  Biso   1.000  Pb
  Pb13     1.0000 0.74965  0.07337  0.72156  Biso   1.000  Pb
  Pb14     1.0000 0.74965  0.57337  0.77775  Biso   1.000  Pb
  Pb15     1.0000 0.75035  0.07337  0.27775  Biso   1.000  Pb
  Pb16     1.0000 0.75035  0.57337  0.22156  Biso   1.000  Pb
  Nb1      1.0000 0.00000  0.00000  0.00000  Biso   1.000  Nb
  Nb2      1.0000 0.00000  0.50000  0.00000  Biso   1.000  Nb
  Nb3      1.0000 0.00000  0.00000  0.50000  Biso   1.000  Nb
  Nb4      1.0000 0.00000  0.50000  0.50000  Biso   1.000  Nb
  Nb5      1.0000 0.50000  0.00000  0.00000  Biso   1.000  Nb
  Nb6      1.0000 0.50000  0.50000  0.00000  Biso   1.000  Nb
  Nb7      1.0000 0.50000  0.00000  0.50000  Biso   1.000  Nb
  Nb8      1.0000 0.50000  0.50000  0.50000  Biso   1.000  Nb
  Ta1      1.0000 0.00646  0.85642  0.00000  Biso   1.000  Ta
  Ta2      1.0000 0.99354  0.35642  0.00000  Biso   1.000  Ta
  Ta3      1.0000 0.99354  0.85642  0.50000  Biso   1.000  Ta
  Ta4      1.0000 0.00646  0.35642  0.50000  Biso   1.000  Ta
  Ta5      1.0000 0.49354  0.85642  0.00000  Biso   1.000  Ta
  Ta6      1.0000 0.50646  0.35642  0.00000  Biso   1.000  Ta
  Ta7      1.0000 0.50646  0.85642  0.50000  Biso   1.000  Ta
  Ta8      1.0000 0.49354  0.35642  0.50000  Biso   1.000  Ta
  Ta9      1.0000 0.99354  0.14358  0.00000  Biso   1.000  Ta
  Ta10     1.0000 0.00646  0.64358  0.00000  Biso   1.000  Ta
  Ta11     1.0000 0.00646  0.14358  0.50000  Biso   1.000  Ta
  Ta12     1.0000 0.99354  0.64358  0.50000  Biso   1.000  Ta
  Ta13     1.0000 0.50646  0.14358  0.00000  Biso   1.000  Ta
  Ta14     1.0000 0.49354  0.64358  0.00000  Biso   1.000  Ta
  Ta15     1.0000 0.49354  0.14358  0.50000  Biso   1.000  Ta
  Ta16     1.0000 0.50646  0.64358  0.50000  Biso   1.000  Ta
  O1       1.0000 0.00000  0.00000  0.25000  Biso   1.000  O
  O2       1.0000 0.00000  0.50000  0.25000  Biso   1.000  O
  O3       1.0000 0.00000  0.00000  0.75000  Biso   1.000  O
  O4       1.0000 0.00000  0.50000  0.75000  Biso   1.000  O
  O5       1.0000 0.50000  0.00000  0.25000  Biso   1.000  O
  O6       1.0000 0.50000  0.50000  0.25000  Biso   1.000  O
  O7       1.0000 0.50000  0.00000  0.75000  Biso   1.000  O
  O8       1.0000 0.50000  0.50000  0.75000  Biso   1.000  O
  O9       1.0000 0.75000  0.04111  0.00000  Biso   1.000  O
  O10      1.0000 0.75000  0.45889  0.00000  Biso   1.000  O
  O11      1.0000 0.75000  0.95889  0.50000  Biso   1.000  O
  O12      1.0000 0.75000  0.54111  0.50000  Biso   1.000  O
  O13      1.0000 0.25000  0.95889  0.00000  Biso   1.000  O
  O14      1.0000 0.25000  0.54111  0.00000  Biso   1.000  O
  O15      1.0000 0.25000  0.04111  0.50000  Biso   1.000  O
  O16      1.0000 0.25000  0.45889  0.50000  Biso   1.000  O
  O17      1.0000 0.96083  0.93488  0.00000  Biso   1.000  O
  O18      1.0000 0.03917  0.43488  0.00000  Biso   1.000  O
  O19      1.0000 0.03917  0.93488  0.50000  Biso   1.000  O
  O20      1.0000 0.96083  0.43488  0.50000  Biso   1.000  O
  O21      1.0000 0.53917  0.93488  0.00000  Biso   1.000  O
  O22      1.0000 0.46083  0.43488  0.00000  Biso   1.000  O
  O23      1.0000 0.46083  0.93488  0.50000  Biso   1.000  O
  O24      1.0000 0.53917  0.43488  0.50000  Biso   1.000  O
  O25      1.0000 0.03917  0.06512  0.00000  Biso   1.000  O
  O26      1.0000 0.96083  0.56512  0.00000  Biso   1.000  O
  O27      1.0000 0.96083  0.06512  0.50000  Biso   1.000  O
  O28      1.0000 0.03917  0.56512  0.50000  Biso   1.000  O
  O29      1.0000 0.46083  0.06512  0.00000  Biso   1.000  O
  O30      1.0000 0.53917  0.56512  0.00000  Biso   1.000  O
  O31      1.0000 0.53917  0.06512  0.50000  Biso   1.000  O
  O32      1.0000 0.46083  0.56512  0.50000  Biso   1.000  O
  O33      1.0000 0.99961  0.86882  0.25000  Biso   1.000  O
  O34      1.0000 0.99961  0.36882  0.25000  Biso   1.000  O
  O35      1.0000 0.00039  0.86882  0.75000  Biso   1.000  O
  O36      1.0000 0.00039  0.36882  0.75000  Biso   1.000  O
  O37      1.0000 0.49961  0.86882  0.25000  Biso   1.000  O
  O38      1.0000 0.49961  0.36882  0.25000  Biso   1.000  O
  O39      1.0000 0.50039  0.86882  0.75000  Biso   1.000  O
  O40      1.0000 0.50039  0.36882  0.75000  Biso   1.000  O
  O41      1.0000 0.00039  0.13118  0.75000  Biso   1.000  O
  O42      1.0000 0.00039  0.63118  0.75000  Biso   1.000  O
  O43      1.0000 0.99961  0.13118  0.25000  Biso   1.000  O
  O44      1.0000 0.99961  0.63118  0.25000  Biso   1.000  O
  O45      1.0000 0.50039  0.13118  0.75000  Biso   1.000  O
  O46      1.0000 0.50039  0.63118  0.75000  Biso   1.000  O
  O47      1.0000 0.49961  0.13118  0.25000  Biso   1.000  O
  O48      1.0000 0.49961  0.63118  0.25000  Biso   1.000  O
  O49      1.0000 0.75000  0.10732  0.00039  Biso   1.000  O
  O50      1.0000 0.75000  0.65504  0.00039  Biso   1.000  O
  O51      1.0000 0.75000  0.15504  0.50039  Biso   1.000  O
  O52      1.0000 0.75000  0.60732  0.50039  Biso   1.000  O
  O53      1.0000 0.25000  0.15504  0.99961  Biso   1.000  O
  O54      1.0000 0.25000  0.60732  0.99961  Biso   1.000  O
  O55      1.0000 0.25000  0.10732  0.49961  Biso   1.000  O
  O56      1.0000 0.25000  0.65504  0.49961  Biso   1.000  O
  O57      1.0000 0.75000  0.84496  0.00039  Biso   1.000  O
  O58      1.0000 0.75000  0.39268  0.00039  Biso   1.000  O
  O59      1.0000 0.75000  0.89268  0.50039  Biso   1.000  O
  O60      1.0000 0.75000  0.34496  0.50039  Biso   1.000  O
  O61      1.0000 0.25000  0.89268  0.99961  Biso   1.000  O
  O62      1.0000 0.25000  0.34496  0.99961  Biso   1.000  O
  O63      1.0000 0.25000  0.84496  0.49961  Biso   1.000  O
  O64      1.0000 0.25000  0.39268  0.49961  Biso   1.000  O
  O65      1.0000 0.02554  0.79813  0.00000  Biso   1.000  O
  O66      1.0000 0.97446  0.29813  0.00000  Biso   1.000  O
  O67      1.0000 0.97446  0.79813  0.50000  Biso   1.000  O
  O68      1.0000 0.02554  0.29813  0.50000  Biso   1.000  O
  O69      1.0000 0.47446  0.79813  0.00000  Biso   1.000  O
  O70      1.0000 0.52554  0.29813  0.00000  Biso   1.000  O
  O71      1.0000 0.52554  0.79813  0.50000  Biso   1.000  O
  O72      1.0000 0.47446  0.29813  0.50000  Biso   1.000  O
  O73      1.0000 0.97446  0.20187  0.00000  Biso   1.000  O
  O74      1.0000 0.02554  0.70187  0.00000  Biso   1.000  O
  O75      1.0000 0.02554  0.20187  0.50000  Biso   1.000  O
  O76      1.0000 0.97446  0.70187  0.50000  Biso   1.000  O
  O77      1.0000 0.52554  0.20187  0.00000  Biso   1.000  O
  O78      1.0000 0.47446  0.70187  0.00000  Biso   1.000  O
  O79      1.0000 0.47446  0.20187  0.50000  Biso   1.000  O
  O80      1.0000 0.52554  0.70187  0.50000  Biso   1.000  O
