data_image0
_cell_length_a       15.6806
_cell_length_b       15.6806
_cell_length_c       5.55277
_cell_angle_alpha    100.198
_cell_angle_beta     100.198
_cell_angle_gamma    150.998

_symmetry_space_group_name_H-M    "P 1"
_symmetry_int_tables_number       1

loop_
  _symmetry_equiv_pos_as_xyz
  'x, y, z'

loop_
  _atom_site_label
  _atom_site_occupancy
  _atom_site_fract_x
  _atom_site_fract_y
  _atom_site_fract_z
  _atom_site_thermal_displace_type
  _atom_site_B_iso_or_equiv
  _atom_site_type_symbol
  K1       1.0000 0.21633  0.21633  0.43266  Biso   1.000  K
  K2       1.0000 0.78367  0.78367  0.56734  Biso   1.000  K
  Pb1      1.0000 0.45472  0.10146  0.52161  Biso   1.000  Pb
  Pb2      1.0000 0.89854  0.54528  0.40925  Biso   1.000  Pb
  Pb3      1.0000 0.10146  0.45472  0.52161  Biso   1.000  Pb
  Pb4      1.0000 0.54528  0.89854  0.40925  Biso   1.000  Pb
  Nb1      1.0000 0.50000  1.00000  0.96640  Biso   1.000  Nb
  Nb2      1.0000 1.00000  0.50000  0.96640  Biso   1.000  Nb
  Ta1      1.0000 0.34996  0.13712  0.02444  Biso   1.000  Ta
  Ta2      1.0000 0.86288  0.65004  0.02444  Biso   1.000  Ta
  Ta3      1.0000 0.65004  0.86288  0.02444  Biso   1.000  Ta
  Ta4      1.0000 0.13712  0.34996  0.02444  Biso   1.000  Ta
  O1       1.0000 0.72794  0.22794  0.53957  Biso   1.000  O
  O2       1.0000 0.22794  0.72794  0.53957  Biso   1.000  O
  O3       1.0000 0.81317  0.23095  0.08369  Biso   1.000  O
  O4       1.0000 0.23095  0.81317  0.08369  Biso   1.000  O
  O5       1.0000 0.47405  0.10429  0.04616  Biso   1.000  O
  O6       1.0000 0.89571  0.52595  0.04616  Biso   1.000  O
  O7       1.0000 0.52595  0.89571  0.04616  Biso   1.000  O
  O8       1.0000 0.10429  0.47405  0.04616  Biso   1.000  O
  O9       1.0000 0.61600  0.37836  0.51946  Biso   1.000  O
  O10      1.0000 0.11600  0.87836  0.51946  Biso   1.000  O
  O11      1.0000 0.37836  0.61600  0.51946  Biso   1.000  O
  O12      1.0000 0.87836  0.11600  0.51946  Biso   1.000  O
  O13      1.0000 0.86014  0.14551  0.02511  Biso   1.000  O
  O14      1.0000 0.40787  0.59778  0.02511  Biso   1.000  O
  O15      1.0000 0.59778  0.40787  0.02511  Biso   1.000  O
  O16      1.0000 0.14551  0.86014  0.02511  Biso   1.000  O
  O17      1.0000 0.27259  0.17633  0.01480  Biso   1.000  O
  O18      1.0000 0.82367  0.72741  0.01480  Biso   1.000  O
  O19      1.0000 0.72741  0.82367  0.01480  Biso   1.000  O
  O20      1.0000 0.17633  0.27259  0.01480  Biso   1.000  O
