data_image0
_cell_length_a       5.55277
_cell_length_b       5.55277
_cell_length_c       30.3622
_cell_angle_alpha    90
_cell_angle_beta     90
_cell_angle_gamma    90

_symmetry_space_group_name_H-M    "P 1"
_symmetry_int_tables_number       1

loop_
  _symmetry_equiv_pos_as_xyz
  'x, y, z'

loop_
  _atom_site_label
  _atom_site_occupancy
  _atom_site_fract_x
  _atom_site_fract_y
  _atom_site_fract_z
  _atom_site_thermal_displace_type
  _atom_site_B_iso_or_equiv
  _atom_site_type_symbol
  K1       1.0000 0.78367  0.78367  0.50000  Biso   1.000  K
  K2       1.0000 0.71633  0.71633  0.00000  Biso   1.000  K
  K3       1.0000 0.21633  0.21633  0.50000  Biso   1.000  K
  K4       1.0000 0.28367  0.28367  0.00000  Biso   1.000  K
  Pb1      1.0000 0.73157  0.71225  0.67663  Biso   1.000  Pb
  Pb2      1.0000 0.76843  0.78775  0.17663  Biso   1.000  Pb
  Pb3      1.0000 0.28775  0.26843  0.67663  Biso   1.000  Pb
  Pb4      1.0000 0.21225  0.23157  0.17663  Biso   1.000  Pb
  Pb5      1.0000 0.23157  0.21225  0.82337  Biso   1.000  Pb
  Pb6      1.0000 0.26843  0.28775  0.32337  Biso   1.000  Pb
  Pb7      1.0000 0.78775  0.76843  0.82337  Biso   1.000  Pb
  Pb8      1.0000 0.71225  0.73157  0.32337  Biso   1.000  Pb
  Nb1      1.0000 0.75000  0.25000  0.75000  Biso   1.000  Nb
  Nb2      1.0000 0.75000  0.25000  0.25000  Biso   1.000  Nb
  Nb3      1.0000 0.25000  0.75000  0.75000  Biso   1.000  Nb
  Nb4      1.0000 0.25000  0.75000  0.25000  Biso   1.000  Nb
  Ta1      1.0000 0.79658  0.20342  0.60642  Biso   1.000  Ta
  Ta2      1.0000 0.70342  0.29658  0.10642  Biso   1.000  Ta
  Ta3      1.0000 0.28366  0.71634  0.60642  Biso   1.000  Ta
  Ta4      1.0000 0.21634  0.78366  0.10642  Biso   1.000  Ta
  Ta5      1.0000 0.78366  0.21634  0.89358  Biso   1.000  Ta
  Ta6      1.0000 0.71634  0.28366  0.39358  Biso   1.000  Ta
  Ta7      1.0000 0.29658  0.70342  0.89358  Biso   1.000  Ta
  Ta8      1.0000 0.20342  0.79658  0.39358  Biso   1.000  Ta
  O1       1.0000 0.54836  0.95164  0.75000  Biso   1.000  O
  O2       1.0000 0.45164  0.04836  0.25000  Biso   1.000  O
  O3       1.0000 0.04836  0.45164  0.75000  Biso   1.000  O
  O4       1.0000 0.95164  0.54836  0.25000  Biso   1.000  O
  O5       1.0000 0.52601  0.47399  0.79111  Biso   1.000  O
  O6       1.0000 0.47399  0.52601  0.20889  Biso   1.000  O
  O7       1.0000 0.02601  0.97399  0.70889  Biso   1.000  O
  O8       1.0000 0.97399  0.02601  0.29111  Biso   1.000  O
  O9       1.0000 0.74092  0.25908  0.68488  Biso   1.000  O
  O10      1.0000 0.75908  0.24092  0.18488  Biso   1.000  O
  O11      1.0000 0.31926  0.68074  0.68488  Biso   1.000  O
  O12      1.0000 0.18074  0.81926  0.18488  Biso   1.000  O
  O13      1.0000 0.81926  0.18074  0.81512  Biso   1.000  O
  O14      1.0000 0.68074  0.31926  0.31512  Biso   1.000  O
  O15      1.0000 0.24092  0.75908  0.81512  Biso   1.000  O
  O16      1.0000 0.25908  0.74092  0.31512  Biso   1.000  O
  O17      1.0000 0.51876  0.98124  0.61882  Biso   1.000  O
  O18      1.0000 0.48124  0.01876  0.11882  Biso   1.000  O
  O19      1.0000 0.01876  0.48124  0.61882  Biso   1.000  O
  O20      1.0000 0.98124  0.51876  0.11882  Biso   1.000  O
  O21      1.0000 0.01876  0.48124  0.88118  Biso   1.000  O
  O22      1.0000 0.98124  0.51876  0.38118  Biso   1.000  O
  O23      1.0000 0.51876  0.98124  0.88118  Biso   1.000  O
  O24      1.0000 0.48124  0.01876  0.38118  Biso   1.000  O
  O25      1.0000 0.51613  0.48387  0.85732  Biso   1.000  O
  O26      1.0000 0.48387  0.51613  0.40504  Biso   1.000  O
  O27      1.0000 0.01613  0.98387  0.90504  Biso   1.000  O
  O28      1.0000 0.98387  0.01613  0.35732  Biso   1.000  O
  O29      1.0000 0.51613  0.48387  0.59496  Biso   1.000  O
  O30      1.0000 0.48387  0.51613  0.14268  Biso   1.000  O
  O31      1.0000 0.01613  0.98387  0.64268  Biso   1.000  O
  O32      1.0000 0.98387  0.01613  0.09496  Biso   1.000  O
  O33      1.0000 0.79202  0.20798  0.54813  Biso   1.000  O
  O34      1.0000 0.70798  0.29202  0.04813  Biso   1.000  O
  O35      1.0000 0.24095  0.75905  0.54813  Biso   1.000  O
  O36      1.0000 0.25905  0.74095  0.04813  Biso   1.000  O
  O37      1.0000 0.74095  0.25905  0.95187  Biso   1.000  O
  O38      1.0000 0.75905  0.24095  0.45187  Biso   1.000  O
  O39      1.0000 0.29202  0.70798  0.95187  Biso   1.000  O
  O40      1.0000 0.20798  0.79202  0.45187  Biso   1.000  O
