data_image0
_cell_length_a       15.6806
_cell_length_b       15.6806
_cell_length_c       5.55277
_cell_angle_alpha    79.8016
_cell_angle_beta     79.8016
_cell_angle_gamma    20.3969

_symmetry_space_group_name_H-M    "P 1"
_symmetry_int_tables_number       1

loop_
  _symmetry_equiv_pos_as_xyz
  'x, y, z'

loop_
  _atom_site_label
  _atom_site_occupancy
  _atom_site_fract_x
  _atom_site_fract_y
  _atom_site_fract_z
  _atom_site_thermal_displace_type
  _atom_site_B_iso_or_equiv
  _atom_site_type_symbol
  K1       1.0000 0.28367  0.71633  0.71633  Biso   1.000  K
  K2       1.0000 0.71633  0.28367  0.28367  Biso   1.000  K
  Pb1      1.0000 0.04528  0.60146  0.95472  Biso   1.000  Pb
  Pb2      1.0000 0.60146  0.04528  0.39854  Biso   1.000  Pb
  Pb3      1.0000 0.39854  0.95472  0.60146  Biso   1.000  Pb
  Pb4      1.0000 0.95472  0.39854  0.04528  Biso   1.000  Pb
  Nb1      1.0000 0.50000  0.00000  0.00000  Biso   1.000  Nb
  Nb2      1.0000 0.00000  0.50000  0.50000  Biso   1.000  Nb
  Ta1      1.0000 0.63712  0.15004  0.84996  Biso   1.000  Ta
  Ta2      1.0000 0.15004  0.63712  0.36288  Biso   1.000  Ta
  Ta3      1.0000 0.36288  0.84996  0.15004  Biso   1.000  Ta
  Ta4      1.0000 0.84996  0.36288  0.63712  Biso   1.000  Ta
  O1       1.0000 0.25000  0.25000  0.25000  Biso   1.000  O
  O2       1.0000 0.75000  0.75000  0.75000  Biso   1.000  O
  O3       1.0000 0.70889  0.70889  0.29111  Biso   1.000  O
  O4       1.0000 0.29111  0.29111  0.70889  Biso   1.000  O
  O5       1.0000 0.60429  0.02595  0.97405  Biso   1.000  O
  O6       1.0000 0.02595  0.60429  0.39571  Biso   1.000  O
  O7       1.0000 0.39571  0.97405  0.02595  Biso   1.000  O
  O8       1.0000 0.97405  0.39571  0.60429  Biso   1.000  O
  O9       1.0000 0.38118  0.38118  0.11882  Biso   1.000  O
  O10      1.0000 0.88118  0.88118  0.61882  Biso   1.000  O
  O11      1.0000 0.61882  0.61882  0.88118  Biso   1.000  O
  O12      1.0000 0.11882  0.11882  0.38118  Biso   1.000  O
  O13      1.0000 0.64268  0.64268  0.35732  Biso   1.000  O
  O14      1.0000 0.09496  0.09496  0.90504  Biso   1.000  O
  O15      1.0000 0.90504  0.90504  0.09496  Biso   1.000  O
  O16      1.0000 0.35732  0.35732  0.64268  Biso   1.000  O
  O17      1.0000 0.67633  0.22741  0.77259  Biso   1.000  O
  O18      1.0000 0.22741  0.67633  0.32367  Biso   1.000  O
  O19      1.0000 0.32367  0.77259  0.22741  Biso   1.000  O
  O20      1.0000 0.77259  0.32367  0.67633  Biso   1.000  O
