data_image0
_cell_length_a       15.6806
_cell_length_b       15.6806
_cell_length_c       7.8528
_cell_angle_alpha    90
_cell_angle_beta     90
_cell_angle_gamma    29.0021

_symmetry_space_group_name_H-M    "P 1"
_symmetry_int_tables_number       1

loop_
  _symmetry_equiv_pos_as_xyz
  'x, y, z'

loop_
  _atom_site_label
  _atom_site_occupancy
  _atom_site_fract_x
  _atom_site_fract_y
  _atom_site_fract_z
  _atom_site_thermal_displace_type
  _atom_site_B_iso_or_equiv
  _atom_site_type_symbol
  K1       1.0000 0.03367  0.96633  0.75000  Biso   1.000  K
  K2       1.0000 0.46633  0.53367  0.75000  Biso   1.000  K
  K3       1.0000 0.96633  0.03367  0.25000  Biso   1.000  K
  K4       1.0000 0.53367  0.46633  0.25000  Biso   1.000  K
  Pb1      1.0000 0.78948  0.84567  0.75000  Biso   1.000  Pb
  Pb2      1.0000 0.35726  0.30107  0.75000  Biso   1.000  Pb
  Pb3      1.0000 0.84567  0.78948  0.25000  Biso   1.000  Pb
  Pb4      1.0000 0.30107  0.35726  0.25000  Biso   1.000  Pb
  Pb5      1.0000 0.15433  0.21052  0.75000  Biso   1.000  Pb
  Pb6      1.0000 0.69893  0.64274  0.75000  Biso   1.000  Pb
  Pb7      1.0000 0.21052  0.15433  0.25000  Biso   1.000  Pb
  Pb8      1.0000 0.64274  0.69893  0.25000  Biso   1.000  Pb
  Nb1      1.0000 0.00000  0.50000  0.00000  Biso   1.000  Nb
  Nb2      1.0000 0.50000  0.00000  0.00000  Biso   1.000  Nb
  Nb3      1.0000 0.00000  0.50000  0.50000  Biso   1.000  Nb
  Nb4      1.0000 0.50000  0.00000  0.50000  Biso   1.000  Nb
  Ta1      1.0000 0.14245  0.64471  0.99354  Biso   1.000  Ta
  Ta2      1.0000 0.64471  0.14245  0.00646  Biso   1.000  Ta
  Ta3      1.0000 0.14245  0.64471  0.50646  Biso   1.000  Ta
  Ta4      1.0000 0.64471  0.14245  0.49354  Biso   1.000  Ta
  Ta5      1.0000 0.85755  0.35529  0.00646  Biso   1.000  Ta
  Ta6      1.0000 0.35529  0.85755  0.99354  Biso   1.000  Ta
  Ta7      1.0000 0.85755  0.35529  0.49354  Biso   1.000  Ta
  Ta8      1.0000 0.35529  0.85755  0.50646  Biso   1.000  Ta
  O1       1.0000 0.79304  0.79304  0.00000  Biso   1.000  O
  O2       1.0000 0.20696  0.20696  0.00000  Biso   1.000  O
  O3       1.0000 0.79304  0.79304  0.50000  Biso   1.000  O
  O4       1.0000 0.20696  0.20696  0.50000  Biso   1.000  O
  O5       1.0000 0.95889  0.45889  0.25000  Biso   1.000  O
  O6       1.0000 0.54111  0.04111  0.25000  Biso   1.000  O
  O7       1.0000 0.04111  0.54111  0.75000  Biso   1.000  O
  O8       1.0000 0.45889  0.95889  0.75000  Biso   1.000  O
  O9       1.0000 0.09871  0.53153  0.03917  Biso   1.000  O
  O10      1.0000 0.53153  0.09871  0.96083  Biso   1.000  O
  O11      1.0000 0.09871  0.53153  0.46083  Biso   1.000  O
  O12      1.0000 0.53153  0.09871  0.53917  Biso   1.000  O
  O13      1.0000 0.90129  0.46847  0.96083  Biso   1.000  O
  O14      1.0000 0.46847  0.90129  0.03917  Biso   1.000  O
  O15      1.0000 0.90129  0.46847  0.53917  Biso   1.000  O
  O16      1.0000 0.46847  0.90129  0.46083  Biso   1.000  O
  O17      1.0000 0.86262  0.86262  0.00000  Biso   1.000  O
  O18      1.0000 0.39974  0.39974  0.00000  Biso   1.000  O
  O19      1.0000 0.86262  0.86262  0.50000  Biso   1.000  O
  O20      1.0000 0.39974  0.39974  0.50000  Biso   1.000  O
  O21      1.0000 0.13738  0.13738  0.00000  Biso   1.000  O
  O22      1.0000 0.60026  0.60026  0.00000  Biso   1.000  O
  O23      1.0000 0.13738  0.13738  0.50000  Biso   1.000  O
  O24      1.0000 0.60026  0.60026  0.50000  Biso   1.000  O
  O25      1.0000 0.89679  0.38857  0.25000  Biso   1.000  O
  O26      1.0000 0.34085  0.84907  0.25000  Biso   1.000  O
  O27      1.0000 0.84907  0.34085  0.75000  Biso   1.000  O
  O28      1.0000 0.38857  0.89679  0.75000  Biso   1.000  O
  O29      1.0000 0.15093  0.65915  0.25000  Biso   1.000  O
  O30      1.0000 0.61143  0.10321  0.25000  Biso   1.000  O
  O31      1.0000 0.10321  0.61143  0.75000  Biso   1.000  O
  O32      1.0000 0.65915  0.15093  0.75000  Biso   1.000  O
  O33      1.0000 0.19487  0.70887  0.97446  Biso   1.000  O
  O34      1.0000 0.70887  0.19487  0.02554  Biso   1.000  O
  O35      1.0000 0.19487  0.70887  0.52554  Biso   1.000  O
  O36      1.0000 0.70887  0.19487  0.47446  Biso   1.000  O
  O37      1.0000 0.80513  0.29113  0.02554  Biso   1.000  O
  O38      1.0000 0.29113  0.80513  0.97446  Biso   1.000  O
  O39      1.0000 0.80513  0.29113  0.47446  Biso   1.000  O
  O40      1.0000 0.29113  0.80513  0.52554  Biso   1.000  O
