data_image0
_cell_length_a       5.55277
_cell_length_b       30.3622
_cell_length_c       7.8528
_cell_angle_alpha    90
_cell_angle_beta     135
_cell_angle_gamma    90

_symmetry_space_group_name_H-M    "P 1"
_symmetry_int_tables_number       1

loop_
  _symmetry_equiv_pos_as_xyz
  'x, y, z'

loop_
  _atom_site_label
  _atom_site_occupancy
  _atom_site_fract_x
  _atom_site_fract_y
  _atom_site_fract_z
  _atom_site_thermal_displace_type
  _atom_site_B_iso_or_equiv
  _atom_site_type_symbol
  K1       1.0000 0.09893  0.25000  0.25000  Biso   1.000  K
  K2       1.0000 0.90107  0.75000  0.25000  Biso   1.000  K
  K3       1.0000 0.09893  0.25000  0.75000  Biso   1.000  K
  K4       1.0000 0.90107  0.75000  0.75000  Biso   1.000  K
  Pb1      1.0000 0.90813  0.07337  0.20501  Biso   1.000  Pb
  Pb2      1.0000 0.09187  0.57337  0.29499  Biso   1.000  Pb
  Pb3      1.0000 0.08809  0.07337  0.79499  Biso   1.000  Pb
  Pb4      1.0000 0.91191  0.57337  0.70501  Biso   1.000  Pb
  Pb5      1.0000 0.09187  0.92663  0.79499  Biso   1.000  Pb
  Pb6      1.0000 0.90813  0.42663  0.70501  Biso   1.000  Pb
  Pb7      1.0000 0.91191  0.92663  0.20501  Biso   1.000  Pb
  Pb8      1.0000 0.08809  0.42663  0.29499  Biso   1.000  Pb
  Nb1      1.0000 0.50000  0.00000  0.75423  Biso   1.000  Nb
  Nb2      1.0000 0.50000  0.50000  0.74577  Biso   1.000  Nb
  Nb3      1.0000 0.50000  0.00000  0.24577  Biso   1.000  Nb
  Nb4      1.0000 0.50000  0.50000  0.25423  Biso   1.000  Nb
  Ta1      1.0000 0.49447  0.14358  0.73750  Biso   1.000  Ta
  Ta2      1.0000 0.50553  0.64358  0.76250  Biso   1.000  Ta
  Ta3      1.0000 0.49447  0.14358  0.26250  Biso   1.000  Ta
  Ta4      1.0000 0.50553  0.64358  0.23750  Biso   1.000  Ta
  Ta5      1.0000 0.50553  0.85642  0.73750  Biso   1.000  Ta
  Ta6      1.0000 0.49447  0.35642  0.76250  Biso   1.000  Ta
  Ta7      1.0000 0.50553  0.85642  0.26250  Biso   1.000  Ta
  Ta8      1.0000 0.49447  0.35642  0.23750  Biso   1.000  Ta
  O1       1.0000 0.00000  0.00000  0.00000  Biso   1.000  O
  O2       1.0000 0.00000  0.50000  0.00000  Biso   1.000  O
  O3       1.0000 0.00000  0.00000  0.50000  Biso   1.000  O
  O4       1.0000 0.00000  0.50000  0.50000  Biso   1.000  O
  O5       1.0000 0.50000  0.00000  0.50000  Biso   1.000  O
  O6       1.0000 0.50000  0.50000  0.50000  Biso   1.000  O
  O7       1.0000 0.50000  0.00000  0.00000  Biso   1.000  O
  O8       1.0000 0.50000  0.50000  0.00000  Biso   1.000  O
  O9       1.0000 0.49876  0.06512  0.78888  Biso   1.000  O
  O10      1.0000 0.50124  0.56512  0.71112  Biso   1.000  O
  O11      1.0000 0.49876  0.06512  0.21112  Biso   1.000  O
  O12      1.0000 0.50124  0.56512  0.28888  Biso   1.000  O
  O13      1.0000 0.50124  0.93488  0.78888  Biso   1.000  O
  O14      1.0000 0.49876  0.43488  0.71112  Biso   1.000  O
  O15      1.0000 0.50124  0.93488  0.21112  Biso   1.000  O
  O16      1.0000 0.49876  0.43488  0.28888  Biso   1.000  O
  O17      1.0000 0.99807  0.13118  0.00001  Biso   1.000  O
  O18      1.0000 0.00193  0.63118  0.99999  Biso   1.000  O
  O19      1.0000 0.99807  0.13118  0.50001  Biso   1.000  O
  O20      1.0000 0.00193  0.63118  0.49999  Biso   1.000  O
  O21      1.0000 0.00193  0.86882  0.49999  Biso   1.000  O
  O22      1.0000 0.99807  0.36882  0.50001  Biso   1.000  O
  O23      1.0000 0.00193  0.86882  0.99999  Biso   1.000  O
  O24      1.0000 0.99807  0.36882  0.00001  Biso   1.000  O
  O25      1.0000 0.50195  0.89758  0.50001  Biso   1.000  O
  O26      1.0000 0.49805  0.34006  0.49999  Biso   1.000  O
  O27      1.0000 0.50195  0.84006  0.00001  Biso   1.000  O
  O28      1.0000 0.49805  0.39758  0.99999  Biso   1.000  O
  O29      1.0000 0.49805  0.10242  0.49999  Biso   1.000  O
  O30      1.0000 0.50195  0.65994  0.50001  Biso   1.000  O
  O31      1.0000 0.49805  0.15994  0.99999  Biso   1.000  O
  O32      1.0000 0.50195  0.60242  0.00001  Biso   1.000  O
  O33      1.0000 0.49198  0.20187  0.72830  Biso   1.000  O
  O34      1.0000 0.50802  0.70187  0.77170  Biso   1.000  O
  O35      1.0000 0.49198  0.20187  0.27170  Biso   1.000  O
  O36      1.0000 0.50802  0.70187  0.22830  Biso   1.000  O
  O37      1.0000 0.50802  0.79813  0.72830  Biso   1.000  O
  O38      1.0000 0.49198  0.29813  0.77170  Biso   1.000  O
  O39      1.0000 0.50802  0.79813  0.27170  Biso   1.000  O
  O40      1.0000 0.49198  0.29813  0.22830  Biso   1.000  O
