data_image0
_cell_length_a       7.8528
_cell_length_b       30.3622
_cell_length_c       7.8528
_cell_angle_alpha    90
_cell_angle_beta     90
_cell_angle_gamma    90

_symmetry_space_group_name_H-M    "P 1"
_symmetry_int_tables_number       1

loop_
  _symmetry_equiv_pos_as_xyz
  'x, y, z'

loop_
  _atom_site_label
  _atom_site_occupancy
  _atom_site_fract_x
  _atom_site_fract_y
  _atom_site_fract_z
  _atom_site_thermal_displace_type
  _atom_site_B_iso_or_equiv
  _atom_site_type_symbol
  K1       1.0000 0.00000  0.36811  0.75000  Biso   1.000  K
  K2       1.0000 0.00000  0.63189  0.75000  Biso   1.000  K
  K3       1.0000 0.00000  0.25000  0.25000  Biso   1.000  K
  K4       1.0000 0.00000  0.75000  0.25000  Biso   1.000  K
  K5       1.0000 0.50000  0.25000  0.75000  Biso   1.000  K
  K6       1.0000 0.50000  0.75000  0.75000  Biso   1.000  K
  K7       1.0000 0.50000  0.13189  0.25000  Biso   1.000  K
  K8       1.0000 0.50000  0.86811  0.25000  Biso   1.000  K
  Pb1      1.0000 0.00000  0.08023  0.79499  Biso   1.000  Pb
  Pb2      1.0000 0.00000  0.56651  0.70501  Biso   1.000  Pb
  Pb3      1.0000 0.00000  0.07337  0.20501  Biso   1.000  Pb
  Pb4      1.0000 0.00000  0.57337  0.29499  Biso   1.000  Pb
  Pb5      1.0000 0.50000  0.07337  0.70501  Biso   1.000  Pb
  Pb6      1.0000 0.50000  0.57337  0.79499  Biso   1.000  Pb
  Pb7      1.0000 0.50000  0.06651  0.29499  Biso   1.000  Pb
  Pb8      1.0000 0.50000  0.58023  0.20501  Biso   1.000  Pb
  Pb9      1.0000 0.00000  0.92663  0.20501  Biso   1.000  Pb
  Pb10     1.0000 0.00000  0.42663  0.29499  Biso   1.000  Pb
  Pb11     1.0000 0.00000  0.91977  0.79499  Biso   1.000  Pb
  Pb12     1.0000 0.00000  0.43349  0.70501  Biso   1.000  Pb
  Pb13     1.0000 0.50000  0.93349  0.29499  Biso   1.000  Pb
  Pb14     1.0000 0.50000  0.41977  0.20501  Biso   1.000  Pb
  Pb15     1.0000 0.50000  0.92663  0.70501  Biso   1.000  Pb
  Pb16     1.0000 0.50000  0.42663  0.79499  Biso   1.000  Pb
  Nb1      1.0000 0.75602  0.00000  0.99821  Biso   1.000  Nb
  Nb2      1.0000 0.74398  0.50000  0.00179  Biso   1.000  Nb
  Nb3      1.0000 0.74756  0.00000  0.50179  Biso   1.000  Nb
  Nb4      1.0000 0.75244  0.50000  0.49821  Biso   1.000  Nb
  Nb5      1.0000 0.24398  0.00000  0.99821  Biso   1.000  Nb
  Nb6      1.0000 0.25602  0.50000  0.00179  Biso   1.000  Nb
  Nb7      1.0000 0.25244  0.00000  0.50179  Biso   1.000  Nb
  Nb8      1.0000 0.24756  0.50000  0.49821  Biso   1.000  Nb
  Ta1      1.0000 0.73224  0.14358  0.00526  Biso   1.000  Ta
  Ta2      1.0000 0.76776  0.64358  0.99474  Biso   1.000  Ta
  Ta3      1.0000 0.75724  0.14358  0.49474  Biso   1.000  Ta
  Ta4      1.0000 0.74276  0.64358  0.50526  Biso   1.000  Ta
  Ta5      1.0000 0.26776  0.14358  0.00526  Biso   1.000  Ta
  Ta6      1.0000 0.23224  0.64358  0.99474  Biso   1.000  Ta
  Ta7      1.0000 0.24276  0.14358  0.49474  Biso   1.000  Ta
  Ta8      1.0000 0.25724  0.64358  0.50526  Biso   1.000  Ta
  Ta9      1.0000 0.73224  0.85642  0.00526  Biso   1.000  Ta
  Ta10     1.0000 0.76776  0.35642  0.99474  Biso   1.000  Ta
  Ta11     1.0000 0.75724  0.85642  0.49474  Biso   1.000  Ta
  Ta12     1.0000 0.74276  0.35642  0.50526  Biso   1.000  Ta
  Ta13     1.0000 0.26776  0.85642  0.00526  Biso   1.000  Ta
  Ta14     1.0000 0.23224  0.35642  0.99474  Biso   1.000  Ta
  Ta15     1.0000 0.24276  0.85642  0.49474  Biso   1.000  Ta
  Ta16     1.0000 0.25724  0.35642  0.50526  Biso   1.000  Ta
  O1       1.0000 0.74926  0.00000  0.75000  Biso   1.000  O
  O2       1.0000 0.75074  0.50000  0.75000  Biso   1.000  O
  O3       1.0000 0.74926  0.00000  0.25000  Biso   1.000  O
  O4       1.0000 0.75074  0.50000  0.25000  Biso   1.000  O
  O5       1.0000 0.25074  0.00000  0.75000  Biso   1.000  O
  O6       1.0000 0.24926  0.50000  0.75000  Biso   1.000  O
  O7       1.0000 0.25074  0.00000  0.25000  Biso   1.000  O
  O8       1.0000 0.24926  0.50000  0.25000  Biso   1.000  O
  O9       1.0000 0.50000  0.00000  0.00074  Biso   1.000  O
  O10      1.0000 0.50000  0.50000  0.99926  Biso   1.000  O
  O11      1.0000 0.50000  0.00000  0.49926  Biso   1.000  O
  O12      1.0000 0.50000  0.50000  0.50074  Biso   1.000  O
  O13      1.0000 0.00000  0.00000  0.00074  Biso   1.000  O
  O14      1.0000 0.00000  0.50000  0.99926  Biso   1.000  O
  O15      1.0000 0.00000  0.00000  0.49926  Biso   1.000  O
  O16      1.0000 0.00000  0.50000  0.50074  Biso   1.000  O
  O17      1.0000 0.79488  0.06512  0.99400  Biso   1.000  O
  O18      1.0000 0.70512  0.56512  0.00600  Biso   1.000  O
  O19      1.0000 0.71712  0.06512  0.50600  Biso   1.000  O
  O20      1.0000 0.78288  0.56512  0.49400  Biso   1.000  O
  O21      1.0000 0.20512  0.06512  0.99400  Biso   1.000  O
  O22      1.0000 0.29488  0.56512  0.00600  Biso   1.000  O
  O23      1.0000 0.28288  0.06512  0.50600  Biso   1.000  O
  O24      1.0000 0.21712  0.56512  0.49400  Biso   1.000  O
  O25      1.0000 0.79488  0.93488  0.99400  Biso   1.000  O
  O26      1.0000 0.70512  0.43488  0.00600  Biso   1.000  O
  O27      1.0000 0.71712  0.93488  0.50600  Biso   1.000  O
  O28      1.0000 0.78288  0.43488  0.49400  Biso   1.000  O
  O29      1.0000 0.20512  0.93488  0.99400  Biso   1.000  O
  O30      1.0000 0.29488  0.43488  0.00600  Biso   1.000  O
  O31      1.0000 0.28288  0.93488  0.50600  Biso   1.000  O
  O32      1.0000 0.21712  0.43488  0.49400  Biso   1.000  O
  O33      1.0000 0.74863  0.14368  0.75000  Biso   1.000  O
  O34      1.0000 0.75137  0.61868  0.75000  Biso   1.000  O
  O35      1.0000 0.74863  0.11868  0.25000  Biso   1.000  O
  O36      1.0000 0.75137  0.64368  0.25000  Biso   1.000  O
  O37      1.0000 0.25137  0.14368  0.75000  Biso   1.000  O
  O38      1.0000 0.24863  0.61868  0.75000  Biso   1.000  O
  O39      1.0000 0.25137  0.11868  0.25000  Biso   1.000  O
  O40      1.0000 0.24863  0.64368  0.25000  Biso   1.000  O
  O41      1.0000 0.74863  0.88132  0.25000  Biso   1.000  O
  O42      1.0000 0.75137  0.35632  0.25000  Biso   1.000  O
  O43      1.0000 0.74863  0.85632  0.75000  Biso   1.000  O
  O44      1.0000 0.75137  0.38132  0.75000  Biso   1.000  O
  O45      1.0000 0.25137  0.88132  0.25000  Biso   1.000  O
  O46      1.0000 0.24863  0.35632  0.25000  Biso   1.000  O
  O47      1.0000 0.25137  0.85632  0.75000  Biso   1.000  O
  O48      1.0000 0.24863  0.38132  0.75000  Biso   1.000  O
  O49      1.0000 0.50000  0.91008  0.00137  Biso   1.000  O
  O50      1.0000 0.50000  0.32756  0.99863  Biso   1.000  O
  O51      1.0000 0.50000  0.85257  0.49863  Biso   1.000  O
  O52      1.0000 0.50000  0.38507  0.50137  Biso   1.000  O
  O53      1.0000 0.00000  0.82756  0.00137  Biso   1.000  O
  O54      1.0000 0.00000  0.41008  0.99863  Biso   1.000  O
  O55      1.0000 0.00000  0.88507  0.49863  Biso   1.000  O
  O56      1.0000 0.00000  0.35257  0.50137  Biso   1.000  O
  O57      1.0000 0.50000  0.08992  0.00137  Biso   1.000  O
  O58      1.0000 0.50000  0.67244  0.99863  Biso   1.000  O
  O59      1.0000 0.50000  0.14743  0.49863  Biso   1.000  O
  O60      1.0000 0.50000  0.61493  0.50137  Biso   1.000  O
  O61      1.0000 0.00000  0.17244  0.00137  Biso   1.000  O
  O62      1.0000 0.00000  0.58992  0.99863  Biso   1.000  O
  O63      1.0000 0.00000  0.11493  0.49863  Biso   1.000  O
  O64      1.0000 0.00000  0.64743  0.50137  Biso   1.000  O
  O65      1.0000 0.70551  0.20187  0.02279  Biso   1.000  O
  O66      1.0000 0.79449  0.70187  0.97721  Biso   1.000  O
  O67      1.0000 0.74891  0.20187  0.47721  Biso   1.000  O
  O68      1.0000 0.75109  0.70187  0.52279  Biso   1.000  O
  O69      1.0000 0.29449  0.20187  0.02279  Biso   1.000  O
  O70      1.0000 0.20551  0.70187  0.97721  Biso   1.000  O
  O71      1.0000 0.25109  0.20187  0.47721  Biso   1.000  O
  O72      1.0000 0.24891  0.70187  0.52279  Biso   1.000  O
  O73      1.0000 0.70551  0.79813  0.02279  Biso   1.000  O
  O74      1.0000 0.79449  0.29813  0.97721  Biso   1.000  O
  O75      1.0000 0.74891  0.79813  0.47721  Biso   1.000  O
  O76      1.0000 0.75109  0.29813  0.52279  Biso   1.000  O
  O77      1.0000 0.29449  0.79813  0.02279  Biso   1.000  O
  O78      1.0000 0.20551  0.29813  0.97721  Biso   1.000  O
  O79      1.0000 0.25109  0.79813  0.47721  Biso   1.000  O
  O80      1.0000 0.24891  0.29813  0.52279  Biso   1.000  O
