data_image0
_cell_length_a       15.6806
_cell_length_b       15.6806
_cell_length_c       7.8528
_cell_angle_alpha    90
_cell_angle_beta     90
_cell_angle_gamma    150.998

_symmetry_space_group_name_H-M    "P 1"
_symmetry_int_tables_number       1

loop_
  _symmetry_equiv_pos_as_xyz
  'x, y, z'

loop_
  _atom_site_label
  _atom_site_occupancy
  _atom_site_fract_x
  _atom_site_fract_y
  _atom_site_fract_z
  _atom_site_thermal_displace_type
  _atom_site_B_iso_or_equiv
  _atom_site_type_symbol
  K1       1.0000 0.80906  0.19094  0.75000  Biso   1.000  K
  K2       1.0000 0.19094  0.80906  0.75000  Biso   1.000  K
  K3       1.0000 0.80906  0.19094  0.25000  Biso   1.000  K
  K4       1.0000 0.19094  0.80906  0.25000  Biso   1.000  K
  Pb1      1.0000 0.55430  0.40071  0.77250  Biso   1.000  Pb
  Pb2      1.0000 0.09244  0.95255  0.72750  Biso   1.000  Pb
  Pb3      1.0000 0.59929  0.44570  0.22750  Biso   1.000  Pb
  Pb4      1.0000 0.04745  0.90756  0.27250  Biso   1.000  Pb
  Pb5      1.0000 0.44570  0.59929  0.22750  Biso   1.000  Pb
  Pb6      1.0000 0.90756  0.04745  0.27250  Biso   1.000  Pb
  Pb7      1.0000 0.40071  0.55430  0.77250  Biso   1.000  Pb
  Pb8      1.0000 0.95255  0.09244  0.72750  Biso   1.000  Pb
  Nb1      1.0000 0.74609  0.74609  0.00211  Biso   1.000  Nb
  Nb2      1.0000 0.25391  0.25391  0.99789  Biso   1.000  Nb
  Nb3      1.0000 0.75032  0.75032  0.49789  Biso   1.000  Nb
  Nb4      1.0000 0.24968  0.24968  0.50211  Biso   1.000  Nb
  Ta1      1.0000 0.90509  0.61793  0.99375  Biso   1.000  Ta
  Ta2      1.0000 0.38207  0.09491  0.00625  Biso   1.000  Ta
  Ta3      1.0000 0.89259  0.60543  0.50625  Biso   1.000  Ta
  Ta4      1.0000 0.39457  0.10741  0.49375  Biso   1.000  Ta
  Ta5      1.0000 0.61793  0.90509  0.99375  Biso   1.000  Ta
  Ta6      1.0000 0.09491  0.38207  0.00625  Biso   1.000  Ta
  Ta7      1.0000 0.60543  0.89259  0.50625  Biso   1.000  Ta
  Ta8      1.0000 0.10741  0.39457  0.49375  Biso   1.000  Ta
  O1       1.0000 0.75074  0.75074  0.75000  Biso   1.000  O
  O2       1.0000 0.24926  0.24926  0.75000  Biso   1.000  O
  O3       1.0000 0.75074  0.75074  0.25000  Biso   1.000  O
  O4       1.0000 0.24926  0.24926  0.25000  Biso   1.000  O
  O5       1.0000 0.00000  0.00000  0.00000  Biso   1.000  O
  O6       1.0000 0.50000  0.50000  0.00000  Biso   1.000  O
  O7       1.0000 0.00000  0.00000  0.50000  Biso   1.000  O
  O8       1.0000 0.50000  0.50000  0.50000  Biso   1.000  O
  O9       1.0000 0.78968  0.65944  0.01944  Biso   1.000  O
  O10      1.0000 0.34056  0.21032  0.98056  Biso   1.000  O
  O11      1.0000 0.82856  0.69832  0.48056  Biso   1.000  O
  O12      1.0000 0.30168  0.17144  0.51944  Biso   1.000  O
  O13      1.0000 0.65944  0.78968  0.01944  Biso   1.000  O
  O14      1.0000 0.21032  0.34056  0.98056  Biso   1.000  O
  O15      1.0000 0.69832  0.82856  0.48056  Biso   1.000  O
  O16      1.0000 0.17144  0.30168  0.51944  Biso   1.000  O
  O17      1.0000 0.86817  0.63456  0.75000  Biso   1.000  O
  O18      1.0000 0.39419  0.10308  0.75000  Biso   1.000  O
  O19      1.0000 0.89692  0.60581  0.25000  Biso   1.000  O
  O20      1.0000 0.36544  0.13183  0.25000  Biso   1.000  O
  O21      1.0000 0.60581  0.89692  0.25000  Biso   1.000  O
  O22      1.0000 0.13183  0.36544  0.25000  Biso   1.000  O
  O23      1.0000 0.63456  0.86817  0.75000  Biso   1.000  O
  O24      1.0000 0.10308  0.39419  0.75000  Biso   1.000  O
  O25      1.0000 0.89570  0.10430  0.00000  Biso   1.000  O
  O26      1.0000 0.34194  0.65806  0.00000  Biso   1.000  O
  O27      1.0000 0.86694  0.13306  0.50000  Biso   1.000  O
  O28      1.0000 0.37070  0.62930  0.50000  Biso   1.000  O
  O29      1.0000 0.10430  0.89570  0.00000  Biso   1.000  O
  O30      1.0000 0.65806  0.34194  0.00000  Biso   1.000  O
  O31      1.0000 0.13306  0.86694  0.50000  Biso   1.000  O
  O32      1.0000 0.62930  0.37070  0.50000  Biso   1.000  O
  O33      1.0000 0.98551  0.58177  0.98915  Biso   1.000  O
  O34      1.0000 0.41823  0.01449  0.01085  Biso   1.000  O
  O35      1.0000 0.96381  0.56007  0.51085  Biso   1.000  O
  O36      1.0000 0.43993  0.03619  0.48915  Biso   1.000  O
  O37      1.0000 0.58177  0.98551  0.98915  Biso   1.000  O
  O38      1.0000 0.01449  0.41823  0.01085  Biso   1.000  O
  O39      1.0000 0.56007  0.96381  0.51085  Biso   1.000  O
  O40      1.0000 0.03619  0.43993  0.48915  Biso   1.000  O
