data_image0
_cell_length_a       3.9264
_cell_length_b       15.6806
_cell_length_c       15.6806
_cell_angle_alpha    150.998
_cell_angle_beta     90
_cell_angle_gamma    90

_symmetry_space_group_name_H-M    "P 1"
_symmetry_int_tables_number       1

loop_
  _symmetry_equiv_pos_as_xyz
  'x, y, z'

loop_
  _atom_site_label
  _atom_site_occupancy
  _atom_site_fract_x
  _atom_site_fract_y
  _atom_site_fract_z
  _atom_site_thermal_displace_type
  _atom_site_B_iso_or_equiv
  _atom_site_type_symbol
  K1       1.0000 0.00000  0.44094  0.05906  Biso   1.000  K
  K2       1.0000 0.00000  0.05906  0.44094  Biso   1.000  K
  Pb1      1.0000 0.00000  0.69049  0.84408  Biso   1.000  Pb
  Pb2      1.0000 0.00000  0.19734  0.33723  Biso   1.000  Pb
  Pb3      1.0000 0.00000  0.84408  0.69049  Biso   1.000  Pb
  Pb4      1.0000 0.00000  0.33723  0.19734  Biso   1.000  Pb
  Nb1      1.0000 0.50000  0.01501  0.01501  Biso   1.000  Nb
  Nb2      1.0000 0.50000  0.51859  0.51859  Biso   1.000  Nb
  Ta1      1.0000 0.50000  0.84946  0.13662  Biso   1.000  Ta
  Ta2      1.0000 0.50000  0.33894  0.62610  Biso   1.000  Ta
  Ta3      1.0000 0.50000  0.13662  0.84946  Biso   1.000  Ta
  Ta4      1.0000 0.50000  0.62610  0.33894  Biso   1.000  Ta
  O1       1.0000 0.00000  0.95889  0.95889  Biso   1.000  O
  O2       1.0000 0.00000  0.45742  0.45742  Biso   1.000  O
  O3       1.0000 0.50000  0.23021  0.23021  Biso   1.000  O
  O4       1.0000 0.50000  0.73021  0.73021  Biso   1.000  O
  O5       1.0000 0.50000  0.90580  0.03604  Biso   1.000  O
  O6       1.0000 0.50000  0.41780  0.54804  Biso   1.000  O
  O7       1.0000 0.50000  0.03604  0.90580  Biso   1.000  O
  O8       1.0000 0.50000  0.54804  0.41780  Biso   1.000  O
  O9       1.0000 0.00000  0.85763  0.11999  Biso   1.000  O
  O10      1.0000 0.00000  0.35490  0.61726  Biso   1.000  O
  O11      1.0000 0.00000  0.11999  0.85763  Biso   1.000  O
  O12      1.0000 0.00000  0.61726  0.35490  Biso   1.000  O
  O13      1.0000 0.50000  0.35895  0.12159  Biso   1.000  O
  O14      1.0000 0.50000  0.88395  0.59659  Biso   1.000  O
  O15      1.0000 0.50000  0.12159  0.35895  Biso   1.000  O
  O16      1.0000 0.50000  0.59659  0.88395  Biso   1.000  O
  O17      1.0000 0.50000  0.81352  0.21726  Biso   1.000  O
  O18      1.0000 0.50000  0.26794  0.67168  Biso   1.000  O
  O19      1.0000 0.50000  0.21726  0.81352  Biso   1.000  O
  O20      1.0000 0.50000  0.67168  0.26794  Biso   1.000  O
