data_image0
_cell_length_a       3.9264
_cell_length_b       15.6806
_cell_length_c       15.6806
_cell_angle_alpha    150.998
_cell_angle_beta     90
_cell_angle_gamma    90

_symmetry_space_group_name_H-M    "P 1"
_symmetry_int_tables_number       1

loop_
  _symmetry_equiv_pos_as_xyz
  'x, y, z'

loop_
  _atom_site_label
  _atom_site_occupancy
  _atom_site_fract_x
  _atom_site_fract_y
  _atom_site_fract_z
  _atom_site_thermal_displace_type
  _atom_site_B_iso_or_equiv
  _atom_site_type_symbol
  K1       1.0000 0.14141  0.50000  0.00000  Biso   1.000  K
  K2       1.0000 0.85859  0.00000  0.50000  Biso   1.000  K
  Pb1      1.0000 0.00060  0.69392  0.84066  Biso   1.000  Pb
  Pb2      1.0000 0.99940  0.19392  0.34066  Biso   1.000  Pb
  Pb3      1.0000 0.99940  0.84066  0.69392  Biso   1.000  Pb
  Pb4      1.0000 0.00060  0.34066  0.19392  Biso   1.000  Pb
  Nb1      1.0000 0.50000  0.01680  0.01680  Biso   1.000  Nb
  Nb2      1.0000 0.50000  0.51680  0.51680  Biso   1.000  Nb
  Ta1      1.0000 0.50000  0.84420  0.13136  Biso   1.000  Ta
  Ta2      1.0000 0.50000  0.34420  0.63136  Biso   1.000  Ta
  Ta3      1.0000 0.50000  0.13136  0.84420  Biso   1.000  Ta
  Ta4      1.0000 0.50000  0.63136  0.34420  Biso   1.000  Ta
  O1       1.0000 0.00000  0.95815  0.95815  Biso   1.000  O
  O2       1.0000 0.00000  0.45815  0.45815  Biso   1.000  O
  O3       1.0000 0.50000  0.23021  0.23021  Biso   1.000  O
  O4       1.0000 0.50000  0.73021  0.73021  Biso   1.000  O
  O5       1.0000 0.50000  0.91180  0.04204  Biso   1.000  O
  O6       1.0000 0.50000  0.41180  0.54204  Biso   1.000  O
  O7       1.0000 0.50000  0.04204  0.91180  Biso   1.000  O
  O8       1.0000 0.50000  0.54204  0.41180  Biso   1.000  O
  O9       1.0000 0.00000  0.85627  0.11863  Biso   1.000  O
  O10      1.0000 0.00000  0.35627  0.61863  Biso   1.000  O
  O11      1.0000 0.00000  0.11863  0.85627  Biso   1.000  O
  O12      1.0000 0.00000  0.61863  0.35627  Biso   1.000  O
  O13      1.0000 0.49921  0.37145  0.10909  Biso   1.000  O
  O14      1.0000 0.50079  0.87145  0.60909  Biso   1.000  O
  O15      1.0000 0.50079  0.10909  0.37145  Biso   1.000  O
  O16      1.0000 0.49921  0.60909  0.87145  Biso   1.000  O
  O17      1.0000 0.50000  0.79073  0.19447  Biso   1.000  O
  O18      1.0000 0.50000  0.29073  0.69447  Biso   1.000  O
  O19      1.0000 0.50000  0.19447  0.79073  Biso   1.000  O
  O20      1.0000 0.50000  0.69447  0.29073  Biso   1.000  O
