data_image0
_cell_length_a       15.6806
_cell_length_b       15.6806
_cell_length_c       15.6806
_cell_angle_alpha    29.0021
_cell_angle_beta     159.603
_cell_angle_gamma    159.603

_symmetry_space_group_name_H-M    "P 1"
_symmetry_int_tables_number       1

loop_
  _symmetry_equiv_pos_as_xyz
  'x, y, z'

loop_
  _atom_site_label
  _atom_site_occupancy
  _atom_site_fract_x
  _atom_site_fract_y
  _atom_site_fract_z
  _atom_site_thermal_displace_type
  _atom_site_B_iso_or_equiv
  _atom_site_type_symbol
  K1       1.0000 0.46633  0.75000  0.21633  Biso   1.000  K
  K2       1.0000 0.53367  0.25000  0.78367  Biso   1.000  K
  Pb1      1.0000 0.56266  0.60794  0.10146  Biso   1.000  Pb
  Pb2      1.0000 0.50648  0.10794  0.54528  Biso   1.000  Pb
  Pb3      1.0000 0.56266  0.96120  0.45472  Biso   1.000  Pb
  Pb4      1.0000 0.50648  0.46120  0.89854  Biso   1.000  Pb
  Nb1      1.0000 0.03360  0.03360  0.00000  Biso   1.000  Nb
  Nb2      1.0000 0.03360  0.53360  0.50000  Biso   1.000  Nb
  Ta1      1.0000 0.96910  0.11914  0.13712  Biso   1.000  Ta
  Ta2      1.0000 0.98203  0.61914  0.65004  Biso   1.000  Ta
  Ta3      1.0000 0.98203  0.83198  0.86288  Biso   1.000  Ta
  Ta4      1.0000 0.96910  0.33198  0.34996  Biso   1.000  Ta
  O1       1.0000 0.91631  0.66781  0.20739  Biso   1.000  O
  O2       1.0000 0.91631  0.20892  0.74850  Biso   1.000  O
  O3       1.0000 0.46043  0.16781  0.25150  Biso   1.000  O
  O4       1.0000 0.46043  0.70892  0.79261  Biso   1.000  O
  O5       1.0000 0.99301  0.01896  0.10429  Biso   1.000  O
  O6       1.0000 0.91467  0.51896  0.52595  Biso   1.000  O
  O7       1.0000 0.91467  0.88872  0.89571  Biso   1.000  O
  O8       1.0000 0.99301  0.38872  0.47405  Biso   1.000  O
  O9       1.0000 0.97489  0.87083  0.39029  Biso   1.000  O
  O10      1.0000 0.97489  0.34697  0.86642  Biso   1.000  O
  O11      1.0000 0.97489  0.08461  0.60406  Biso   1.000  O
  O12      1.0000 0.97489  0.60847  0.12793  Biso   1.000  O
  O13      1.0000 0.48054  0.10847  0.13358  Biso   1.000  O
  O14      1.0000 0.48054  0.58461  0.60971  Biso   1.000  O
  O15      1.0000 0.48054  0.37083  0.39594  Biso   1.000  O
  O16      1.0000 0.48054  0.84697  0.87207  Biso   1.000  O
  O17      1.0000 0.95967  0.18707  0.17633  Biso   1.000  O
  O18      1.0000 0.01074  0.68707  0.72741  Biso   1.000  O
  O19      1.0000 0.01074  0.78333  0.82367  Biso   1.000  O
  O20      1.0000 0.95967  0.28333  0.27259  Biso   1.000  O
