data_image0
_cell_length_a       16.1647
_cell_length_b       7.8528
_cell_length_c       16.1647
_cell_angle_alpha    75.9423
_cell_angle_beta     28.1154
_cell_angle_gamma    75.9423

_symmetry_space_group_name_H-M    "P 1"
_symmetry_int_tables_number       1

loop_
  _symmetry_equiv_pos_as_xyz
  'x, y, z'

loop_
  _atom_site_label
  _atom_site_occupancy
  _atom_site_fract_x
  _atom_site_fract_y
  _atom_site_fract_z
  _atom_site_thermal_displace_type
  _atom_site_B_iso_or_equiv
  _atom_site_type_symbol
  K1       1.0000 1.00000  1.00000  0.00000  Biso   1.000  K
  K2       1.0000 0.50000  0.50000  0.50000  Biso   1.000  K
  K3       1.0000 0.00000  0.50000  0.00000  Biso   1.000  K
  K4       1.0000 0.50000  1.00000  0.50000  Biso   1.000  K
  Pb1      1.0000 0.79449  0.17094  0.82906  Biso   1.000  Pb
  Pb2      1.0000 0.31768  0.64775  0.35225  Biso   1.000  Pb
  Pb3      1.0000 0.80608  0.65934  0.84066  Biso   1.000  Pb
  Pb4      1.0000 0.30608  0.15934  0.34066  Biso   1.000  Pb
  Pb5      1.0000 0.65934  0.80608  0.69392  Biso   1.000  Pb
  Pb6      1.0000 0.15934  0.30608  0.19392  Biso   1.000  Pb
  Pb7      1.0000 0.64775  0.31768  0.68232  Biso   1.000  Pb
  Pb8      1.0000 0.17094  0.79449  0.20551  Biso   1.000  Pb
  Nb1      1.0000 0.48320  0.98320  0.01680  Biso   1.000  Nb
  Nb2      1.0000 0.98320  0.48320  0.51680  Biso   1.000  Nb
  Nb3      1.0000 0.48320  0.48320  0.01680  Biso   1.000  Nb
  Nb4      1.0000 0.98320  0.98320  0.51680  Biso   1.000  Nb
  Ta1      1.0000 0.65692  0.86976  0.13024  Biso   1.000  Ta
  Ta2      1.0000 0.15467  0.36751  0.63249  Biso   1.000  Ta
  Ta3      1.0000 0.65692  0.36751  0.13024  Biso   1.000  Ta
  Ta4      1.0000 0.15467  0.86976  0.63249  Biso   1.000  Ta
  Ta5      1.0000 0.36751  0.15467  0.84533  Biso   1.000  Ta
  Ta6      1.0000 0.86976  0.65692  0.34308  Biso   1.000  Ta
  Ta7      1.0000 0.36751  0.65692  0.84533  Biso   1.000  Ta
  Ta8      1.0000 0.86976  0.15467  0.34308  Biso   1.000  Ta
  O1       1.0000 0.58488  0.22675  0.00119  Biso   1.000  O
  O2       1.0000 0.99881  0.81283  0.41512  Biso   1.000  O
  O3       1.0000 0.49881  0.81283  0.91512  Biso   1.000  O
  O4       1.0000 0.08488  0.22675  0.50119  Biso   1.000  O
  O5       1.0000 0.22675  0.08488  0.18717  Biso   1.000  O
  O6       1.0000 0.81283  0.49881  0.77325  Biso   1.000  O
  O7       1.0000 0.22675  0.58488  0.18717  Biso   1.000  O
  O8       1.0000 0.81283  0.99881  0.77325  Biso   1.000  O
  O9       1.0000 0.55461  0.92437  0.07563  Biso   1.000  O
  O10      1.0000 0.12179  0.49155  0.50845  Biso   1.000  O
  O11      1.0000 0.55461  0.49155  0.07563  Biso   1.000  O
  O12      1.0000 0.12179  0.92437  0.50845  Biso   1.000  O
  O13      1.0000 0.49155  0.12179  0.87821  Biso   1.000  O
  O14      1.0000 0.92437  0.55461  0.44539  Biso   1.000  O
  O15      1.0000 0.49155  0.55461  0.87821  Biso   1.000  O
  O16      1.0000 0.92437  0.12179  0.44539  Biso   1.000  O
  O17      1.0000 0.62928  0.14710  0.09597  Biso   1.000  O
  O18      1.0000 0.15818  0.60999  0.64129  Biso   1.000  O
  O19      1.0000 0.66639  0.60999  0.13308  Biso   1.000  O
  O20      1.0000 0.12107  0.14710  0.60418  Biso   1.000  O
  O21      1.0000 0.39582  0.87235  0.87893  Biso   1.000  O
  O22      1.0000 0.86692  0.40946  0.33361  Biso   1.000  O
  O23      1.0000 0.35871  0.40946  0.84182  Biso   1.000  O
  O24      1.0000 0.90403  0.87235  0.37072  Biso   1.000  O
  O25      1.0000 0.14710  0.12107  0.12765  Biso   1.000  O
  O26      1.0000 0.60999  0.66639  0.59054  Biso   1.000  O
  O27      1.0000 0.14710  0.62928  0.12765  Biso   1.000  O
  O28      1.0000 0.60999  0.15818  0.59054  Biso   1.000  O
  O29      1.0000 0.40946  0.86692  0.39001  Biso   1.000  O
  O30      1.0000 0.87235  0.39582  0.85290  Biso   1.000  O
  O31      1.0000 0.40946  0.35871  0.39001  Biso   1.000  O
  O32      1.0000 0.87235  0.90403  0.85290  Biso   1.000  O
  O33      1.0000 0.71626  0.81252  0.18748  Biso   1.000  O
  O34      1.0000 0.20227  0.29853  0.70147  Biso   1.000  O
  O35      1.0000 0.71626  0.29853  0.18748  Biso   1.000  O
  O36      1.0000 0.20227  0.81252  0.70147  Biso   1.000  O
  O37      1.0000 0.29853  0.20227  0.79773  Biso   1.000  O
  O38      1.0000 0.81252  0.71626  0.28374  Biso   1.000  O
  O39      1.0000 0.29853  0.71626  0.79773  Biso   1.000  O
  O40      1.0000 0.81252  0.20227  0.28374  Biso   1.000  O
