data_image0
_cell_length_a       5.55277
_cell_length_b       15.1811
_cell_length_c       7.8528
_cell_angle_alpha    90
_cell_angle_beta     135
_cell_angle_gamma    90

_symmetry_space_group_name_H-M    "P 1"
_symmetry_int_tables_number       1

loop_
  _symmetry_equiv_pos_as_xyz
  'x, y, z'

loop_
  _atom_site_label
  _atom_site_occupancy
  _atom_site_fract_x
  _atom_site_fract_y
  _atom_site_fract_z
  _atom_site_thermal_displace_type
  _atom_site_B_iso_or_equiv
  _atom_site_type_symbol
  K1       1.0000 0.50000  0.50000  0.50000  Biso   1.000  K
  K2       1.0000 0.50000  0.50000  1.00000  Biso   1.000  K
  Pb1      1.0000 0.46543  0.14674  0.49670  Biso   1.000  Pb
  Pb2      1.0000 0.46543  0.14674  0.93415  Biso   1.000  Pb
  Pb3      1.0000 0.46543  0.85326  0.99670  Biso   1.000  Pb
  Pb4      1.0000 0.46543  0.85326  0.43415  Biso   1.000  Pb
  Nb1      1.0000 0.96640  0.00000  0.96640  Biso   1.000  Nb
  Nb2      1.0000 0.96640  0.00000  0.46640  Biso   1.000  Nb
  Ta1      1.0000 0.03847  0.28716  0.03146  Biso   1.000  Ta
  Ta2      1.0000 0.01040  0.28716  0.51742  Biso   1.000  Ta
  Ta3      1.0000 0.01040  0.71284  0.01742  Biso   1.000  Ta
  Ta4      1.0000 0.03847  0.71284  0.53146  Biso   1.000  Ta
  O1       1.0000 0.53957  0.08808  0.31163  Biso   1.000  O
  O2       1.0000 0.53957  0.91192  0.81163  Biso   1.000  O
  O3       1.0000 0.08369  0.00000  0.81163  Biso   1.000  O
  O4       1.0000 0.08369  0.00000  0.31163  Biso   1.000  O
  O5       1.0000 0.96202  0.13024  0.00409  Biso   1.000  O
  O6       1.0000 0.13030  0.13024  0.58823  Biso   1.000  O
  O7       1.0000 0.13030  0.86976  0.08823  Biso   1.000  O
  O8       1.0000 0.96202  0.86976  0.50409  Biso   1.000  O
  O9       1.0000 0.51946  0.21291  0.27228  Biso   1.000  O
  O10      1.0000 0.51946  0.31181  0.77228  Biso   1.000  O
  O11      1.0000 0.51946  0.78709  0.77228  Biso   1.000  O
  O12      1.0000 0.51946  0.68819  0.27228  Biso   1.000  O
  O13      1.0000 0.02511  0.73764  0.77228  Biso   1.000  O
  O14      1.0000 0.02511  0.73764  0.27228  Biso   1.000  O
  O15      1.0000 0.02511  0.26236  0.77228  Biso   1.000  O
  O16      1.0000 0.02511  0.26236  0.27228  Biso   1.000  O
  O17      1.0000 0.06460  0.40374  0.03970  Biso   1.000  O
  O18      1.0000 0.96500  0.40374  0.48990  Biso   1.000  O
  O19      1.0000 0.96500  0.59626  0.98990  Biso   1.000  O
  O20      1.0000 0.06460  0.59626  0.53970  Biso   1.000  O
