data_image0
_cell_length_a       5.55277
_cell_length_b       15.1811
_cell_length_c       7.8528
_cell_angle_alpha    90
_cell_angle_beta     135
_cell_angle_gamma    90

_symmetry_space_group_name_H-M    "P 1"
_symmetry_int_tables_number       1

loop_
  _symmetry_equiv_pos_as_xyz
  'x, y, z'

loop_
  _atom_site_label
  _atom_site_occupancy
  _atom_site_fract_x
  _atom_site_fract_y
  _atom_site_fract_z
  _atom_site_thermal_displace_type
  _atom_site_B_iso_or_equiv
  _atom_site_type_symbol
  K1       1.0000 0.50000  0.50000  0.50000  Biso   1.000  K
  K2       1.0000 0.50000  0.50000  1.00000  Biso   1.000  K
  Pb1      1.0000 0.43415  0.14674  0.48271  Biso   1.000  Pb
  Pb2      1.0000 0.49670  0.14674  0.98271  Biso   1.000  Pb
  Pb3      1.0000 0.43415  0.85326  0.98271  Biso   1.000  Pb
  Pb4      1.0000 0.49670  0.85326  0.48271  Biso   1.000  Pb
  Nb1      1.0000 0.96640  0.00000  0.98320  Biso   1.000  Nb
  Nb2      1.0000 0.96640  0.00000  0.48320  Biso   1.000  Nb
  Ta1      1.0000 0.03146  0.28716  0.01222  Biso   1.000  Ta
  Ta2      1.0000 0.01742  0.28716  0.51222  Biso   1.000  Ta
  Ta3      1.0000 0.01742  0.71284  0.01222  Biso   1.000  Ta
  Ta4      1.0000 0.03146  0.71284  0.51222  Biso   1.000  Ta
  O1       1.0000 0.53957  0.04404  0.26979  Biso   1.000  O
  O2       1.0000 0.53957  0.95596  0.76979  Biso   1.000  O
  O3       1.0000 0.08369  0.04404  0.79185  Biso   1.000  O
  O4       1.0000 0.08369  0.95596  0.29185  Biso   1.000  O
  O5       1.0000 0.00409  0.13024  0.02308  Biso   1.000  O
  O6       1.0000 0.08823  0.13024  0.52308  Biso   1.000  O
  O7       1.0000 0.08823  0.86976  0.02308  Biso   1.000  O
  O8       1.0000 0.00409  0.86976  0.52308  Biso   1.000  O
  O9       1.0000 0.51946  0.23763  0.25973  Biso   1.000  O
  O10      1.0000 0.51946  0.28709  0.75973  Biso   1.000  O
  O11      1.0000 0.51946  0.76237  0.75973  Biso   1.000  O
  O12      1.0000 0.51946  0.71291  0.25973  Biso   1.000  O
  O13      1.0000 0.02511  0.71291  0.76255  Biso   1.000  O
  O14      1.0000 0.02511  0.76237  0.26255  Biso   1.000  O
  O15      1.0000 0.02511  0.23763  0.76255  Biso   1.000  O
  O16      1.0000 0.02511  0.28709  0.26255  Biso   1.000  O
  O17      1.0000 0.03970  0.40374  0.00740  Biso   1.000  O
  O18      1.0000 0.98990  0.40374  0.50740  Biso   1.000  O
  O19      1.0000 0.98990  0.59626  0.00740  Biso   1.000  O
  O20      1.0000 0.03970  0.59626  0.50740  Biso   1.000  O
