data_image0
_cell_length_a       16.1647
_cell_length_b       16.1647
_cell_length_c       7.8528
_cell_angle_alpha    104.058
_cell_angle_beta     104.058
_cell_angle_gamma    28.1154

_symmetry_space_group_name_H-M    "P 1"
_symmetry_int_tables_number       1

loop_
  _symmetry_equiv_pos_as_xyz
  'x, y, z'

loop_
  _atom_site_label
  _atom_site_occupancy
  _atom_site_fract_x
  _atom_site_fract_y
  _atom_site_fract_z
  _atom_site_thermal_displace_type
  _atom_site_B_iso_or_equiv
  _atom_site_type_symbol
  K1       1.0000 0.82070  0.67930  0.82070  Biso   1.000  K
  K2       1.0000 0.17930  0.32070  0.17930  Biso   1.000  K
  K3       1.0000 0.67930  0.82070  0.32070  Biso   1.000  K
  K4       1.0000 0.32070  0.17930  0.67930  Biso   1.000  K
  Pb1      1.0000 0.95820  0.89506  0.92693  Biso   1.000  Pb
  Pb2      1.0000 0.45761  0.39565  0.42633  Biso   1.000  Pb
  Pb3      1.0000 0.89506  0.95820  0.42693  Biso   1.000  Pb
  Pb4      1.0000 0.39565  0.45761  0.92633  Biso   1.000  Pb
  Pb5      1.0000 0.10494  0.04180  0.57307  Biso   1.000  Pb
  Pb6      1.0000 0.60435  0.54239  0.07367  Biso   1.000  Pb
  Pb7      1.0000 0.04180  0.10494  0.07307  Biso   1.000  Pb
  Pb8      1.0000 0.54239  0.60435  0.57367  Biso   1.000  Pb
  Nb1      1.0000 0.75000  0.25000  0.75000  Biso   1.000  Nb
  Nb2      1.0000 0.25000  0.75000  0.25000  Biso   1.000  Nb
  Nb3      1.0000 0.75000  0.25000  0.25000  Biso   1.000  Nb
  Nb4      1.0000 0.25000  0.75000  0.75000  Biso   1.000  Nb
  Ta1      1.0000 0.60642  0.10642  0.61344  Biso   1.000  Ta
  Ta2      1.0000 0.10642  0.60642  0.11344  Biso   1.000  Ta
  Ta3      1.0000 0.60642  0.10642  0.09940  Biso   1.000  Ta
  Ta4      1.0000 0.10642  0.60642  0.59940  Biso   1.000  Ta
  Ta5      1.0000 0.89358  0.39358  0.88656  Biso   1.000  Ta
  Ta6      1.0000 0.39358  0.89358  0.38656  Biso   1.000  Ta
  Ta7      1.0000 0.89358  0.39358  0.40060  Biso   1.000  Ta
  Ta8      1.0000 0.39358  0.89358  0.90060  Biso   1.000  Ta
  O1       1.0000 0.70596  0.20596  0.95596  Biso   1.000  O
  O2       1.0000 0.20596  0.70596  0.45596  Biso   1.000  O
  O3       1.0000 0.79404  0.29404  0.54404  Biso   1.000  O
  O4       1.0000 0.29404  0.79404  0.04404  Biso   1.000  O
  O5       1.0000 0.50000  0.50000  0.75000  Biso   1.000  O
  O6       1.0000 0.00000  0.00000  0.25000  Biso   1.000  O
  O7       1.0000 0.50000  0.50000  0.25000  Biso   1.000  O
  O8       1.0000 0.00000  0.00000  0.75000  Biso   1.000  O
  O9       1.0000 0.68488  0.18488  0.64281  Biso   1.000  O
  O10      1.0000 0.18488  0.68488  0.14281  Biso   1.000  O
  O11      1.0000 0.68488  0.18488  0.22695  Biso   1.000  O
  O12      1.0000 0.18488  0.68488  0.72695  Biso   1.000  O
  O13      1.0000 0.81512  0.31512  0.85719  Biso   1.000  O
  O14      1.0000 0.31512  0.81512  0.35719  Biso   1.000  O
  O15      1.0000 0.81512  0.31512  0.27305  Biso   1.000  O
  O16      1.0000 0.31512  0.81512  0.77305  Biso   1.000  O
  O17      1.0000 0.64315  0.14394  0.89355  Biso   1.000  O
  O18      1.0000 0.14394  0.64315  0.39355  Biso   1.000  O
  O19      1.0000 0.59449  0.09370  0.34409  Biso   1.000  O
  O20      1.0000 0.09370  0.59449  0.84409  Biso   1.000  O
  O21      1.0000 0.85606  0.35685  0.60645  Biso   1.000  O
  O22      1.0000 0.35685  0.85606  0.10645  Biso   1.000  O
  O23      1.0000 0.90630  0.40551  0.15591  Biso   1.000  O
  O24      1.0000 0.40551  0.90630  0.65591  Biso   1.000  O
  O25      1.0000 0.63118  0.63118  0.88079  Biso   1.000  O
  O26      1.0000 0.13118  0.13118  0.38157  Biso   1.000  O
  O27      1.0000 0.63118  0.63118  0.38079  Biso   1.000  O
  O28      1.0000 0.13118  0.13118  0.88157  Biso   1.000  O
  O29      1.0000 0.36882  0.36882  0.61921  Biso   1.000  O
  O30      1.0000 0.86882  0.86882  0.11843  Biso   1.000  O
  O31      1.0000 0.36882  0.36882  0.11921  Biso   1.000  O
  O32      1.0000 0.86882  0.86882  0.61843  Biso   1.000  O
  O33      1.0000 0.54813  0.04813  0.57303  Biso   1.000  O
  O34      1.0000 0.04813  0.54813  0.07303  Biso   1.000  O
  O35      1.0000 0.54813  0.04813  0.02323  Biso   1.000  O
  O36      1.0000 0.04813  0.54813  0.52323  Biso   1.000  O
  O37      1.0000 0.95187  0.45187  0.92697  Biso   1.000  O
  O38      1.0000 0.45187  0.95187  0.42697  Biso   1.000  O
  O39      1.0000 0.95187  0.45187  0.47677  Biso   1.000  O
  O40      1.0000 0.45187  0.95187  0.97677  Biso   1.000  O
