data_image0
_cell_length_a       7.8528
_cell_length_b       7.8528
_cell_length_c       15.1811
_cell_angle_alpha    90
_cell_angle_beta     90
_cell_angle_gamma    90

_symmetry_space_group_name_H-M    "P 1"
_symmetry_int_tables_number       1

loop_
  _symmetry_equiv_pos_as_xyz
  'x, y, z'

loop_
  _atom_site_label
  _atom_site_occupancy
  _atom_site_fract_x
  _atom_site_fract_y
  _atom_site_fract_z
  _atom_site_thermal_displace_type
  _atom_site_B_iso_or_equiv
  _atom_site_type_symbol
  K1       1.0000 0.75000  0.25000  0.65636  Biso   1.000  K
  K2       1.0000 0.75000  0.75000  0.50000  Biso   1.000  K
  K3       1.0000 0.25000  0.25000  0.50000  Biso   1.000  K
  K4       1.0000 0.25000  0.75000  0.34364  Biso   1.000  K
  Pb1      1.0000 0.78127  0.25000  0.15900  Biso   1.000  Pb
  Pb2      1.0000 0.71873  0.75000  0.14674  Biso   1.000  Pb
  Pb3      1.0000 0.21873  0.25000  0.14674  Biso   1.000  Pb
  Pb4      1.0000 0.28127  0.75000  0.13448  Biso   1.000  Pb
  Pb5      1.0000 0.78127  0.75000  0.85326  Biso   1.000  Pb
  Pb6      1.0000 0.71873  0.25000  0.86552  Biso   1.000  Pb
  Pb7      1.0000 0.21873  0.75000  0.84100  Biso   1.000  Pb
  Pb8      1.0000 0.28127  0.25000  0.85326  Biso   1.000  Pb
  Nb1      1.0000 0.50000  0.00000  0.00000  Biso   1.000  Nb
  Nb2      1.0000 0.50000  0.50000  0.00000  Biso   1.000  Nb
  Nb3      1.0000 0.00000  0.00000  0.00000  Biso   1.000  Nb
  Nb4      1.0000 0.00000  0.50000  0.00000  Biso   1.000  Nb
  Ta1      1.0000 0.49512  0.00213  0.28716  Biso   1.000  Ta
  Ta2      1.0000 0.49512  0.49787  0.28716  Biso   1.000  Ta
  Ta3      1.0000 0.00488  0.98810  0.28716  Biso   1.000  Ta
  Ta4      1.0000 0.00488  0.51190  0.28716  Biso   1.000  Ta
  Ta5      1.0000 0.50488  0.99787  0.71284  Biso   1.000  Ta
  Ta6      1.0000 0.50488  0.50213  0.71284  Biso   1.000  Ta
  Ta7      1.0000 0.99512  0.01190  0.71284  Biso   1.000  Ta
  Ta8      1.0000 0.99512  0.48810  0.71284  Biso   1.000  Ta
  O1       1.0000 0.50000  0.25000  0.04510  Biso   1.000  O
  O2       1.0000 0.50000  0.75000  0.95490  Biso   1.000  O
  O3       1.0000 0.00000  0.25000  0.86895  Biso   1.000  O
  O4       1.0000 0.00000  0.75000  0.13105  Biso   1.000  O
  O5       1.0000 0.25000  0.00000  0.04297  Biso   1.000  O
  O6       1.0000 0.25000  0.50000  0.04297  Biso   1.000  O
  O7       1.0000 0.75000  0.00000  0.95703  Biso   1.000  O
  O8       1.0000 0.75000  0.50000  0.95703  Biso   1.000  O
  O9       1.0000 0.51945  0.97738  0.13024  Biso   1.000  O
  O10      1.0000 0.51945  0.52262  0.13024  Biso   1.000  O
  O11      1.0000 0.98055  0.06151  0.13024  Biso   1.000  O
  O12      1.0000 0.98055  0.43849  0.13024  Biso   1.000  O
  O13      1.0000 0.48055  0.02262  0.86976  Biso   1.000  O
  O14      1.0000 0.48055  0.47738  0.86976  Biso   1.000  O
  O15      1.0000 0.01945  0.93849  0.86976  Biso   1.000  O
  O16      1.0000 0.01945  0.56151  0.86976  Biso   1.000  O
  O17      1.0000 0.49750  0.25000  0.25309  Biso   1.000  O
  O18      1.0000 0.49750  0.75000  0.27163  Biso   1.000  O
  O19      1.0000 0.00250  0.25000  0.35199  Biso   1.000  O
  O20      1.0000 0.00250  0.75000  0.17273  Biso   1.000  O
  O21      1.0000 0.50250  0.75000  0.74691  Biso   1.000  O
  O22      1.0000 0.50250  0.25000  0.72837  Biso   1.000  O
  O23      1.0000 0.99750  0.75000  0.64801  Biso   1.000  O
  O24      1.0000 0.99750  0.25000  0.82727  Biso   1.000  O
  O25      1.0000 0.25000  0.00250  0.69746  Biso   1.000  O
  O26      1.0000 0.25000  0.49750  0.69746  Biso   1.000  O
  O27      1.0000 0.75000  0.00250  0.77782  Biso   1.000  O
  O28      1.0000 0.75000  0.49750  0.77782  Biso   1.000  O
  O29      1.0000 0.25000  0.99750  0.22218  Biso   1.000  O
  O30      1.0000 0.25000  0.50250  0.22218  Biso   1.000  O
  O31      1.0000 0.75000  0.99750  0.30254  Biso   1.000  O
  O32      1.0000 0.75000  0.50250  0.30254  Biso   1.000  O
  O33      1.0000 0.47386  0.99876  0.40374  Biso   1.000  O
  O34      1.0000 0.47386  0.50124  0.40374  Biso   1.000  O
  O35      1.0000 0.02614  0.94896  0.40374  Biso   1.000  O
  O36      1.0000 0.02614  0.55104  0.40374  Biso   1.000  O
  O37      1.0000 0.52614  0.00124  0.59626  Biso   1.000  O
  O38      1.0000 0.52614  0.49876  0.59626  Biso   1.000  O
  O39      1.0000 0.97386  0.05104  0.59626  Biso   1.000  O
  O40      1.0000 0.97386  0.44896  0.59626  Biso   1.000  O
