data_image0
_cell_length_a       16.1647
_cell_length_b       16.1647
_cell_length_c       7.8528
_cell_angle_alpha    104.058
_cell_angle_beta     104.058
_cell_angle_gamma    139.818

_symmetry_space_group_name_H-M    "P 1"
_symmetry_int_tables_number       1

loop_
  _symmetry_equiv_pos_as_xyz
  'x, y, z'

loop_
  _atom_site_label
  _atom_site_occupancy
  _atom_site_fract_x
  _atom_site_fract_y
  _atom_site_fract_z
  _atom_site_thermal_displace_type
  _atom_site_B_iso_or_equiv
  _atom_site_type_symbol
  K1       1.0000 0.19094  0.80906  0.00000  Biso   1.000  K
  K2       1.0000 0.80906  0.19094  0.00000  Biso   1.000  K
  K3       1.0000 0.19094  0.80906  0.50000  Biso   1.000  K
  K4       1.0000 0.80906  0.19094  0.50000  Biso   1.000  K
  Pb1      1.0000 0.40756  0.56116  0.96873  Biso   1.000  Pb
  Pb2      1.0000 0.91442  0.05430  0.96873  Biso   1.000  Pb
  Pb3      1.0000 0.43884  0.59244  0.53127  Biso   1.000  Pb
  Pb4      1.0000 0.94570  0.08558  0.53127  Biso   1.000  Pb
  Pb5      1.0000 0.56116  0.40756  0.46873  Biso   1.000  Pb
  Pb6      1.0000 0.05430  0.91442  0.46873  Biso   1.000  Pb
  Pb7      1.0000 0.59244  0.43884  0.03127  Biso   1.000  Pb
  Pb8      1.0000 0.08558  0.94570  0.03127  Biso   1.000  Pb
  Nb1      1.0000 0.74821  0.74821  0.99821  Biso   1.000  Nb
  Nb2      1.0000 0.25179  0.25179  0.00179  Biso   1.000  Nb
  Nb3      1.0000 0.74821  0.74821  0.49821  Biso   1.000  Nb
  Nb4      1.0000 0.25179  0.25179  0.50179  Biso   1.000  Nb
  Ta1      1.0000 0.61519  0.90235  0.01228  Biso   1.000  Ta
  Ta2      1.0000 0.10467  0.39183  0.00176  Biso   1.000  Ta
  Ta3      1.0000 0.60817  0.89533  0.49824  Biso   1.000  Ta
  Ta4      1.0000 0.09765  0.38481  0.48772  Biso   1.000  Ta
  Ta5      1.0000 0.89533  0.60817  0.99824  Biso   1.000  Ta
  Ta6      1.0000 0.38481  0.09765  0.98772  Biso   1.000  Ta
  Ta7      1.0000 0.90235  0.61519  0.51228  Biso   1.000  Ta
  Ta8      1.0000 0.39183  0.10467  0.50176  Biso   1.000  Ta
  O1       1.0000 0.72872  0.77276  0.25074  Biso   1.000  O
  O2       1.0000 0.22724  0.27128  0.24926  Biso   1.000  O
  O3       1.0000 0.77276  0.72872  0.75074  Biso   1.000  O
  O4       1.0000 0.27128  0.22724  0.74926  Biso   1.000  O
  O5       1.0000 0.97798  0.02202  0.25000  Biso   1.000  O
  O6       1.0000 0.47798  0.52202  0.25000  Biso   1.000  O
  O7       1.0000 0.02202  0.97798  0.75000  Biso   1.000  O
  O8       1.0000 0.52202  0.47798  0.75000  Biso   1.000  O
  O9       1.0000 0.65785  0.78809  0.95193  Biso   1.000  O
  O10      1.0000 0.16984  0.30008  0.96393  Biso   1.000  O
  O11      1.0000 0.69992  0.83016  0.53607  Biso   1.000  O
  O12      1.0000 0.21191  0.34215  0.54807  Biso   1.000  O
  O13      1.0000 0.83016  0.69992  0.03607  Biso   1.000  O
  O14      1.0000 0.34215  0.21191  0.04807  Biso   1.000  O
  O15      1.0000 0.78809  0.65785  0.45193  Biso   1.000  O
  O16      1.0000 0.30008  0.16984  0.46393  Biso   1.000  O
  O17      1.0000 0.63255  0.87018  0.25137  Biso   1.000  O
  O18      1.0000 0.12982  0.36745  0.24863  Biso   1.000  O
  O19      1.0000 0.60782  0.89491  0.75137  Biso   1.000  O
  O20      1.0000 0.10509  0.39218  0.74863  Biso   1.000  O
  O21      1.0000 0.87018  0.63255  0.75137  Biso   1.000  O
  O22      1.0000 0.36745  0.12982  0.74863  Biso   1.000  O
  O23      1.0000 0.89491  0.60782  0.25137  Biso   1.000  O
  O24      1.0000 0.39218  0.10509  0.24863  Biso   1.000  O
  O25      1.0000 0.13104  0.86896  0.25000  Biso   1.000  O
  O26      1.0000 0.65604  0.34396  0.25000  Biso   1.000  O
  O27      1.0000 0.10632  0.89368  0.75000  Biso   1.000  O
  O28      1.0000 0.63132  0.36868  0.75000  Biso   1.000  O
  O29      1.0000 0.89368  0.10632  0.25000  Biso   1.000  O
  O30      1.0000 0.36868  0.63132  0.25000  Biso   1.000  O
  O31      1.0000 0.86896  0.13104  0.75000  Biso   1.000  O
  O32      1.0000 0.34396  0.65604  0.75000  Biso   1.000  O
  O33      1.0000 0.58337  0.98711  0.04769  Biso   1.000  O
  O34      1.0000 0.03779  0.44153  0.00211  Biso   1.000  O
  O35      1.0000 0.55847  0.96221  0.49789  Biso   1.000  O
  O36      1.0000 0.01289  0.41663  0.45231  Biso   1.000  O
  O37      1.0000 0.96221  0.55847  0.99789  Biso   1.000  O
  O38      1.0000 0.41663  0.01289  0.95231  Biso   1.000  O
  O39      1.0000 0.98711  0.58337  0.54769  Biso   1.000  O
  O40      1.0000 0.44153  0.03779  0.50211  Biso   1.000  O
