data_image0
_cell_length_a       15.1811
_cell_length_b       5.55277
_cell_length_c       5.55277
_cell_angle_alpha    90
_cell_angle_beta     90
_cell_angle_gamma    90

_symmetry_space_group_name_H-M    "P 1"
_symmetry_int_tables_number       1

loop_
  _symmetry_equiv_pos_as_xyz
  'x, y, z'

loop_
  _atom_site_label
  _atom_site_occupancy
  _atom_site_fract_x
  _atom_site_fract_y
  _atom_site_fract_z
  _atom_site_thermal_displace_type
  _atom_site_B_iso_or_equiv
  _atom_site_type_symbol
  K1       1.0000 0.50000  0.00000  0.50000  Biso   1.000  K
  K2       1.0000 0.50000  0.50000  0.00000  Biso   1.000  K
  Pb1      1.0000 0.14674  0.98601  0.48601  Biso   1.000  Pb
  Pb2      1.0000 0.14674  0.54856  0.04856  Biso   1.000  Pb
  Pb3      1.0000 0.85326  0.48601  0.98601  Biso   1.000  Pb
  Pb4      1.0000 0.85326  0.04856  0.54856  Biso   1.000  Pb
  Nb1      1.0000 0.00000  0.01680  0.01680  Biso   1.000  Nb
  Nb2      1.0000 0.00000  0.51680  0.51680  Biso   1.000  Nb
  Ta1      1.0000 0.28716  0.99480  0.98076  Biso   1.000  Ta
  Ta2      1.0000 0.28716  0.48076  0.49480  Biso   1.000  Ta
  Ta3      1.0000 0.71284  0.98076  0.99480  Biso   1.000  Ta
  Ta4      1.0000 0.71284  0.49480  0.48076  Biso   1.000  Ta
  O1       1.0000 0.08808  0.20815  0.70815  Biso   1.000  O
  O2       1.0000 0.91192  0.70815  0.20815  Biso   1.000  O
  O3       1.0000 0.00000  0.23021  0.23021  Biso   1.000  O
  O4       1.0000 0.00000  0.73021  0.73021  Biso   1.000  O
  O5       1.0000 0.13024  0.93485  0.01899  Biso   1.000  O
  O6       1.0000 0.13024  0.51899  0.43485  Biso   1.000  O
  O7       1.0000 0.86976  0.01899  0.93485  Biso   1.000  O
  O8       1.0000 0.86976  0.43485  0.51899  Biso   1.000  O
  O9       1.0000 0.21291  0.23745  0.73745  Biso   1.000  O
  O10      1.0000 0.31181  0.73745  0.23745  Biso   1.000  O
  O11      1.0000 0.78709  0.73745  0.23745  Biso   1.000  O
  O12      1.0000 0.68819  0.23745  0.73745  Biso   1.000  O
  O13      1.0000 0.73764  0.24027  0.24027  Biso   1.000  O
  O14      1.0000 0.73764  0.74027  0.74027  Biso   1.000  O
  O15      1.0000 0.26236  0.24027  0.24027  Biso   1.000  O
  O16      1.0000 0.26236  0.74027  0.74027  Biso   1.000  O
  O17      1.0000 0.40374  0.01750  0.96770  Biso   1.000  O
  O18      1.0000 0.40374  0.46770  0.51750  Biso   1.000  O
  O19      1.0000 0.59626  0.96770  0.01750  Biso   1.000  O
  O20      1.0000 0.59626  0.51750  0.46770  Biso   1.000  O
