data_image0
_cell_length_a       16.1647
_cell_length_b       16.1647
_cell_length_c       16.1647
_cell_angle_alpha    151.885
_cell_angle_beta     151.885
_cell_angle_gamma    40.1819

_symmetry_space_group_name_H-M    "P 1"
_symmetry_int_tables_number       1

loop_
  _symmetry_equiv_pos_as_xyz
  'x, y, z'

loop_
  _atom_site_label
  _atom_site_occupancy
  _atom_site_fract_x
  _atom_site_fract_y
  _atom_site_fract_z
  _atom_site_thermal_displace_type
  _atom_site_B_iso_or_equiv
  _atom_site_type_symbol
  K1       1.0000 0.00000  0.00000  0.50000  Biso   1.000  K
  K2       1.0000 0.50000  0.50000  0.50000  Biso   1.000  K
  K3       1.0000 0.50000  0.00000  0.00000  Biso   1.000  K
  K4       1.0000 0.00000  0.50000  0.00000  Biso   1.000  K
  Pb1      1.0000 0.81757  0.78630  0.46873  Biso   1.000  Pb
  Pb2      1.0000 0.32917  0.29789  0.46873  Biso   1.000  Pb
  Pb3      1.0000 0.32917  0.86044  0.03127  Biso   1.000  Pb
  Pb4      1.0000 0.81757  0.34885  0.03127  Biso   1.000  Pb
  Pb5      1.0000 0.18243  0.65115  0.96873  Biso   1.000  Pb
  Pb6      1.0000 0.67083  0.13956  0.96873  Biso   1.000  Pb
  Pb7      1.0000 0.67083  0.70211  0.53127  Biso   1.000  Pb
  Pb8      1.0000 0.18243  0.21370  0.53127  Biso   1.000  Pb
  Nb1      1.0000 0.00000  0.00000  0.00000  Biso   1.000  Nb
  Nb2      1.0000 0.50000  0.50000  0.00000  Biso   1.000  Nb
  Nb3      1.0000 0.50000  0.00000  0.50000  Biso   1.000  Nb
  Nb4      1.0000 1.00000  0.50000  0.50000  Biso   1.000  Nb
  Ta1      1.0000 0.13543  0.14358  0.99185  Biso   1.000  Ta
  Ta2      1.0000 0.63769  0.64358  0.99411  Biso   1.000  Ta
  Ta3      1.0000 0.65173  0.14358  0.50815  Biso   1.000  Ta
  Ta4      1.0000 0.14947  0.64358  0.50589  Biso   1.000  Ta
  Ta5      1.0000 0.86457  0.85642  0.00815  Biso   1.000  Ta
  Ta6      1.0000 0.36231  0.35642  0.00589  Biso   1.000  Ta
  Ta7      1.0000 0.34827  0.85642  0.49185  Biso   1.000  Ta
  Ta8      1.0000 0.85053  0.35642  0.49411  Biso   1.000  Ta
  O1       1.0000 0.83708  0.08708  0.75000  Biso   1.000  O
  O2       1.0000 0.25100  0.50100  0.75000  Biso   1.000  O
  O3       1.0000 0.16292  0.91292  0.25000  Biso   1.000  O
  O4       1.0000 0.74900  0.49900  0.25000  Biso   1.000  O
  O5       1.0000 0.00000  0.25000  0.25000  Biso   1.000  O
  O6       1.0000 0.50000  0.75000  0.25000  Biso   1.000  O
  O7       1.0000 0.50000  0.25000  0.75000  Biso   1.000  O
  O8       1.0000 1.00000  0.75000  0.75000  Biso   1.000  O
  O9       1.0000 0.14078  0.06512  0.07566  Biso   1.000  O
  O10      1.0000 0.57360  0.56512  0.00848  Biso   1.000  O
  O11      1.0000 0.48946  0.06512  0.42434  Biso   1.000  O
  O12      1.0000 0.05664  0.56512  0.49152  Biso   1.000  O
  O13      1.0000 0.85922  0.93488  0.92434  Biso   1.000  O
  O14      1.0000 0.42640  0.43488  0.99152  Biso   1.000  O
  O15      1.0000 0.51054  0.93488  0.57566  Biso   1.000  O
  O16      1.0000 0.94336  0.43488  0.50848  Biso   1.000  O
  O17      1.0000 0.83790  0.08790  0.75000  Biso   1.000  O
  O18      1.0000 0.37501  0.62501  0.75000  Biso   1.000  O
  O19      1.0000 0.42446  0.17446  0.25000  Biso   1.000  O
  O20      1.0000 0.88735  0.63735  0.25000  Biso   1.000  O
  O21      1.0000 0.16210  0.91210  0.25000  Biso   1.000  O
  O22      1.0000 0.62499  0.37499  0.25000  Biso   1.000  O
  O23      1.0000 0.57554  0.82554  0.75000  Biso   1.000  O
  O24      1.0000 0.11265  0.36265  0.75000  Biso   1.000  O
  O25      1.0000 0.87293  0.11882  0.25411  Biso   1.000  O
  O26      1.0000 0.36471  0.61882  0.24589  Biso   1.000  O
  O27      1.0000 0.36471  0.11882  0.74589  Biso   1.000  O
  O28      1.0000 0.87293  0.61882  0.75411  Biso   1.000  O
  O29      1.0000 0.12707  0.38118  0.24589  Biso   1.000  O
  O30      1.0000 0.63529  0.88118  0.25411  Biso   1.000  O
  O31      1.0000 0.63529  0.38118  0.75411  Biso   1.000  O
  O32      1.0000 0.12707  0.88118  0.74589  Biso   1.000  O
  O33      1.0000 0.16997  0.20187  0.96810  Biso   1.000  O
  O34      1.0000 0.68397  0.70187  0.98210  Biso   1.000  O
  O35      1.0000 0.73377  0.20187  0.53190  Biso   1.000  O
  O36      1.0000 0.21977  0.70187  0.51790  Biso   1.000  O
  O37      1.0000 0.83003  0.79813  0.03190  Biso   1.000  O
  O38      1.0000 0.31603  0.29813  0.01790  Biso   1.000  O
  O39      1.0000 0.26623  0.79813  0.46810  Biso   1.000  O
  O40      1.0000 0.78023  0.29813  0.48210  Biso   1.000  O
