data_image0
_cell_length_a       5.55277
_cell_length_b       30.3622
_cell_length_c       7.8528
_cell_angle_alpha    90
_cell_angle_beta     135
_cell_angle_gamma    90

_symmetry_space_group_name_H-M    "P 1"
_symmetry_int_tables_number       1

loop_
  _symmetry_equiv_pos_as_xyz
  'x, y, z'

loop_
  _atom_site_label
  _atom_site_occupancy
  _atom_site_fract_x
  _atom_site_fract_y
  _atom_site_fract_z
  _atom_site_thermal_displace_type
  _atom_site_B_iso_or_equiv
  _atom_site_type_symbol
  K1       1.0000 0.50000  0.00000  0.50000  Biso   1.000  K
  K2       1.0000 0.50000  0.50000  0.50000  Biso   1.000  K
  K3       1.0000 0.50000  0.00000  0.00000  Biso   1.000  K
  K4       1.0000 0.50000  0.50000  0.00000  Biso   1.000  K
  Pb1      1.0000 0.49034  0.82337  0.53127  Biso   1.000  Pb
  Pb2      1.0000 0.50966  0.32337  0.53127  Biso   1.000  Pb
  Pb3      1.0000 0.49034  0.82337  0.96873  Biso   1.000  Pb
  Pb4      1.0000 0.50966  0.32337  0.96873  Biso   1.000  Pb
  Pb5      1.0000 0.49034  0.67663  0.03127  Biso   1.000  Pb
  Pb6      1.0000 0.50966  0.17663  0.03127  Biso   1.000  Pb
  Pb7      1.0000 0.49034  0.67663  0.46873  Biso   1.000  Pb
  Pb8      1.0000 0.50966  0.17663  0.46873  Biso   1.000  Pb
  Nb1      1.0000 0.00000  0.75000  0.00000  Biso   1.000  Nb
  Nb2      1.0000 0.00000  0.25000  0.00000  Biso   1.000  Nb
  Nb3      1.0000 0.00000  0.75000  0.50000  Biso   1.000  Nb
  Nb4      1.0000 0.00000  0.25000  0.50000  Biso   1.000  Nb
  Ta1      1.0000 0.97392  0.89358  0.00702  Biso   1.000  Ta
  Ta2      1.0000 0.05416  0.39358  0.00702  Biso   1.000  Ta
  Ta3      1.0000 0.94584  0.89358  0.49298  Biso   1.000  Ta
  Ta4      1.0000 0.02608  0.39358  0.49298  Biso   1.000  Ta
  Ta5      1.0000 0.94584  0.60642  0.99298  Biso   1.000  Ta
  Ta6      1.0000 0.02608  0.10642  0.99298  Biso   1.000  Ta
  Ta7      1.0000 0.97392  0.60642  0.50702  Biso   1.000  Ta
  Ta8      1.0000 0.05416  0.10642  0.50702  Biso   1.000  Ta
  O1       1.0000 0.47399  0.79404  0.26117  Biso   1.000  O
  O2       1.0000 0.52601  0.29404  0.23883  Biso   1.000  O
  O3       1.0000 0.47399  0.70596  0.76117  Biso   1.000  O
  O4       1.0000 0.52601  0.20596  0.73883  Biso   1.000  O
  O5       1.0000 0.95164  0.75000  0.73883  Biso   1.000  O
  O6       1.0000 0.04836  0.25000  0.76117  Biso   1.000  O
  O7       1.0000 0.95164  0.75000  0.23883  Biso   1.000  O
  O8       1.0000 0.04836  0.25000  0.26117  Biso   1.000  O
  O9       1.0000 0.88578  0.81512  0.95793  Biso   1.000  O
  O10      1.0000 0.94595  0.31512  0.95793  Biso   1.000  O
  O11      1.0000 0.05405  0.81512  0.54207  Biso   1.000  O
  O12      1.0000 0.11422  0.31512  0.54207  Biso   1.000  O
  O13      1.0000 0.05405  0.68488  0.04207  Biso   1.000  O
  O14      1.0000 0.11422  0.18488  0.04207  Biso   1.000  O
  O15      1.0000 0.88578  0.68488  0.45793  Biso   1.000  O
  O16      1.0000 0.94595  0.18488  0.45793  Biso   1.000  O
  O17      1.0000 0.48387  0.85645  0.25132  Biso   1.000  O
  O18      1.0000 0.51613  0.35645  0.24868  Biso   1.000  O
  O19      1.0000 0.48387  0.90591  0.75132  Biso   1.000  O
  O20      1.0000 0.51613  0.40591  0.74868  Biso   1.000  O
  O21      1.0000 0.48387  0.64355  0.75132  Biso   1.000  O
  O22      1.0000 0.51613  0.14355  0.74868  Biso   1.000  O
  O23      1.0000 0.48387  0.59409  0.25132  Biso   1.000  O
  O24      1.0000 0.51613  0.09409  0.24868  Biso   1.000  O
  O25      1.0000 0.98124  0.61882  0.74868  Biso   1.000  O
  O26      1.0000 0.01876  0.11882  0.75132  Biso   1.000  O
  O27      1.0000 0.98124  0.61882  0.24868  Biso   1.000  O
  O28      1.0000 0.01876  0.11882  0.25132  Biso   1.000  O
  O29      1.0000 0.98124  0.88118  0.74868  Biso   1.000  O
  O30      1.0000 0.01876  0.38118  0.75132  Biso   1.000  O
  O31      1.0000 0.98124  0.88118  0.24868  Biso   1.000  O
  O32      1.0000 0.01876  0.38118  0.25132  Biso   1.000  O
  O33      1.0000 0.03331  0.95187  0.02490  Biso   1.000  O
  O34      1.0000 0.06629  0.45187  0.02490  Biso   1.000  O
  O35      1.0000 0.93371  0.95187  0.47510  Biso   1.000  O
  O36      1.0000 0.96669  0.45187  0.47510  Biso   1.000  O
  O37      1.0000 0.93371  0.54813  0.97510  Biso   1.000  O
  O38      1.0000 0.96669  0.04813  0.97510  Biso   1.000  O
  O39      1.0000 0.03331  0.54813  0.52490  Biso   1.000  O
  O40      1.0000 0.06629  0.04813  0.52490  Biso   1.000  O
