data_image0
_cell_length_a       16.1647
_cell_length_b       16.1647
_cell_length_c       7.8528
_cell_angle_alpha    104.058
_cell_angle_beta     104.058
_cell_angle_gamma    28.1154

_symmetry_space_group_name_H-M    "P 1"
_symmetry_int_tables_number       1

loop_
  _symmetry_equiv_pos_as_xyz
  'x, y, z'

loop_
  _atom_site_label
  _atom_site_occupancy
  _atom_site_fract_x
  _atom_site_fract_y
  _atom_site_fract_z
  _atom_site_thermal_displace_type
  _atom_site_B_iso_or_equiv
  _atom_site_type_symbol
  K1       1.0000 0.13189  0.13189  0.63189  Biso   1.000  K
  K2       1.0000 0.86811  0.86811  0.36811  Biso   1.000  K
  K3       1.0000 0.75000  0.75000  0.75000  Biso   1.000  K
  K4       1.0000 0.25000  0.25000  0.25000  Biso   1.000  K
  Pb1      1.0000 0.41977  0.41977  0.95105  Biso   1.000  Pb
  Pb2      1.0000 0.93349  0.93349  0.46476  Biso   1.000  Pb
  Pb3      1.0000 0.92663  0.92663  0.89536  Biso   1.000  Pb
  Pb4      1.0000 0.42663  0.42663  0.39536  Biso   1.000  Pb
  Pb5      1.0000 0.07337  0.07337  0.10464  Biso   1.000  Pb
  Pb6      1.0000 0.57337  0.57337  0.60464  Biso   1.000  Pb
  Pb7      1.0000 0.58023  0.58023  0.04895  Biso   1.000  Pb
  Pb8      1.0000 0.06651  0.06651  0.53524  Biso   1.000  Pb
  Nb1      1.0000 0.74821  0.25179  0.75179  Biso   1.000  Nb
  Nb2      1.0000 0.25179  0.74821  0.24821  Biso   1.000  Nb
  Nb3      1.0000 0.25179  0.74821  0.75179  Biso   1.000  Nb
  Nb4      1.0000 0.74821  0.25179  0.24821  Biso   1.000  Nb
  Ta1      1.0000 0.60466  0.10818  0.60116  Biso   1.000  Ta
  Ta2      1.0000 0.09414  0.61870  0.11168  Biso   1.000  Ta
  Ta3      1.0000 0.10818  0.60466  0.60116  Biso   1.000  Ta
  Ta4      1.0000 0.61870  0.09414  0.11168  Biso   1.000  Ta
  Ta5      1.0000 0.90586  0.38130  0.88832  Biso   1.000  Ta
  Ta6      1.0000 0.39534  0.89182  0.39884  Biso   1.000  Ta
  Ta7      1.0000 0.38130  0.90586  0.88832  Biso   1.000  Ta
  Ta8      1.0000 0.89182  0.39534  0.39884  Biso   1.000  Ta
  O1       1.0000 0.45596  0.45596  0.70522  Biso   1.000  O
  O2       1.0000 0.95596  0.95596  0.20670  Biso   1.000  O
  O3       1.0000 0.04404  0.04404  0.79330  Biso   1.000  O
  O4       1.0000 0.54404  0.54404  0.29478  Biso   1.000  O
  O5       1.0000 0.75074  0.24926  0.50000  Biso   1.000  O
  O6       1.0000 0.24926  0.75074  0.00000  Biso   1.000  O
  O7       1.0000 0.24926  0.75074  0.50000  Biso   1.000  O
  O8       1.0000 0.75074  0.24926  0.00000  Biso   1.000  O
  O9       1.0000 0.72095  0.14881  0.69088  Biso   1.000  O
  O10      1.0000 0.23295  0.63681  0.17888  Biso   1.000  O
  O11      1.0000 0.14881  0.72095  0.69088  Biso   1.000  O
  O12      1.0000 0.63681  0.23295  0.17888  Biso   1.000  O
  O13      1.0000 0.76705  0.36319  0.82112  Biso   1.000  O
  O14      1.0000 0.27905  0.85119  0.30912  Biso   1.000  O
  O15      1.0000 0.36319  0.76705  0.82112  Biso   1.000  O
  O16      1.0000 0.85119  0.27905  0.30912  Biso   1.000  O
  O17      1.0000 0.38104  0.38104  0.62968  Biso   1.000  O
  O18      1.0000 0.90605  0.90605  0.15741  Biso   1.000  O
  O19      1.0000 0.85660  0.85660  0.60523  Biso   1.000  O
  O20      1.0000 0.33159  0.33159  0.08296  Biso   1.000  O
  O21      1.0000 0.09395  0.09395  0.84259  Biso   1.000  O
  O22      1.0000 0.61896  0.61896  0.37032  Biso   1.000  O
  O23      1.0000 0.66841  0.66841  0.91704  Biso   1.000  O
  O24      1.0000 0.14340  0.14340  0.39477  Biso   1.000  O
  O25      1.0000 0.87004  0.36731  0.61868  Biso   1.000  O
  O26      1.0000 0.39232  0.89505  0.14368  Biso   1.000  O
  O27      1.0000 0.36731  0.87004  0.61868  Biso   1.000  O
  O28      1.0000 0.89505  0.39232  0.14368  Biso   1.000  O
  O29      1.0000 0.63269  0.12996  0.38132  Biso   1.000  O
  O30      1.0000 0.10495  0.60768  0.85632  Biso   1.000  O
  O31      1.0000 0.12996  0.63269  0.38132  Biso   1.000  O
  O32      1.0000 0.60768  0.10495  0.85632  Biso   1.000  O
  O33      1.0000 0.54602  0.05024  0.52534  Biso   1.000  O
  O34      1.0000 0.00044  0.59582  0.07092  Biso   1.000  O
  O35      1.0000 0.05024  0.54602  0.52534  Biso   1.000  O
  O36      1.0000 0.59582  0.00044  0.07092  Biso   1.000  O
  O37      1.0000 0.99956  0.40418  0.92908  Biso   1.000  O
  O38      1.0000 0.45398  0.94976  0.47466  Biso   1.000  O
  O39      1.0000 0.40418  0.99956  0.92908  Biso   1.000  O
  O40      1.0000 0.94976  0.45398  0.47466  Biso   1.000  O
