data_image0
_cell_length_a       5.55277
_cell_length_b       5.55277
_cell_length_c       15.1811
_cell_angle_alpha    90
_cell_angle_beta     90
_cell_angle_gamma    90

_symmetry_space_group_name_H-M    "P 1"
_symmetry_int_tables_number       1

loop_
  _symmetry_equiv_pos_as_xyz
  'x, y, z'

loop_
  _atom_site_label
  _atom_site_occupancy
  _atom_site_fract_x
  _atom_site_fract_y
  _atom_site_fract_z
  _atom_site_thermal_displace_type
  _atom_site_B_iso_or_equiv
  _atom_site_type_symbol
  K1       1.0000 0.17472  0.82528  0.50000  Biso   1.000  K
  K2       1.0000 0.82528  0.17472  0.50000  Biso   1.000  K
  Pb1      1.0000 0.24358  0.69387  0.85326  Biso   1.000  Pb
  Pb2      1.0000 0.75642  0.30613  0.85326  Biso   1.000  Pb
  Pb3      1.0000 0.69387  0.24358  0.14674  Biso   1.000  Pb
  Pb4      1.0000 0.30613  0.75642  0.14674  Biso   1.000  Pb
  Nb1      1.0000 0.74938  0.74938  0.00000  Biso   1.000  Nb
  Nb2      1.0000 0.25062  0.25062  0.00000  Biso   1.000  Nb
  Ta1      1.0000 0.75462  0.76866  0.71284  Biso   1.000  Ta
  Ta2      1.0000 0.24538  0.23134  0.71284  Biso   1.000  Ta
  Ta3      1.0000 0.76866  0.75462  0.28716  Biso   1.000  Ta
  Ta4      1.0000 0.23134  0.24538  0.28716  Biso   1.000  Ta
  O1       1.0000 0.50000  0.00000  0.91192  Biso   1.000  O
  O2       1.0000 0.00000  0.50000  0.08808  Biso   1.000  O
  O3       1.0000 0.00000  0.00000  0.00000  Biso   1.000  O
  O4       1.0000 0.50000  0.50000  0.00000  Biso   1.000  O
  O5       1.0000 0.78052  0.69638  0.86976  Biso   1.000  O
  O6       1.0000 0.21948  0.30362  0.86976  Biso   1.000  O
  O7       1.0000 0.69638  0.78052  0.13024  Biso   1.000  O
  O8       1.0000 0.30362  0.21948  0.13024  Biso   1.000  O
  O9       1.0000 0.50000  0.00000  0.78709  Biso   1.000  O
  O10      1.0000 0.00000  0.50000  0.68819  Biso   1.000  O
  O11      1.0000 0.00000  0.50000  0.21291  Biso   1.000  O
  O12      1.0000 0.50000  0.00000  0.31181  Biso   1.000  O
  O13      1.0000 0.00000  0.00000  0.22759  Biso   1.000  O
  O14      1.0000 0.50000  0.50000  0.29713  Biso   1.000  O
  O15      1.0000 0.00000  0.00000  0.77241  Biso   1.000  O
  O16      1.0000 0.50000  0.50000  0.70287  Biso   1.000  O
  O17      1.0000 0.75637  0.80617  0.59626  Biso   1.000  O
  O18      1.0000 0.24363  0.19383  0.59626  Biso   1.000  O
  O19      1.0000 0.80617  0.75637  0.40374  Biso   1.000  O
  O20      1.0000 0.19383  0.24363  0.40374  Biso   1.000  O
