data_image0
_cell_length_a       16.1647
_cell_length_b       16.1647
_cell_length_c       7.8528
_cell_angle_alpha    104.058
_cell_angle_beta     104.058
_cell_angle_gamma    139.818

_symmetry_space_group_name_H-M    "P 1"
_symmetry_int_tables_number       1

loop_
  _symmetry_equiv_pos_as_xyz
  'x, y, z'

loop_
  _atom_site_label
  _atom_site_occupancy
  _atom_site_fract_x
  _atom_site_fract_y
  _atom_site_fract_z
  _atom_site_thermal_displace_type
  _atom_site_B_iso_or_equiv
  _atom_site_type_symbol
  K1       1.0000 0.00000  0.00000  0.00000  Biso   1.000  K
  K2       1.0000 0.50000  0.50000  0.00000  Biso   1.000  K
  K3       1.0000 0.00000  0.00000  0.50000  Biso   1.000  K
  K4       1.0000 0.50000  0.50000  0.50000  Biso   1.000  K
  Pb1      1.0000 0.16679  0.80194  0.96873  Biso   1.000  Pb
  Pb2      1.0000 0.65520  0.31353  0.96873  Biso   1.000  Pb
  Pb3      1.0000 0.19806  0.83321  0.53127  Biso   1.000  Pb
  Pb4      1.0000 0.68647  0.34480  0.53127  Biso   1.000  Pb
  Pb5      1.0000 0.31353  0.65520  0.46873  Biso   1.000  Pb
  Pb6      1.0000 0.80194  0.16679  0.46873  Biso   1.000  Pb
  Pb7      1.0000 0.34480  0.68647  0.03127  Biso   1.000  Pb
  Pb8      1.0000 0.83321  0.19806  0.03127  Biso   1.000  Pb
  Nb1      1.0000 0.50000  0.00000  0.00000  Biso   1.000  Nb
  Nb2      1.0000 0.00000  0.50000  0.00000  Biso   1.000  Nb
  Nb3      1.0000 0.50000  0.00000  0.50000  Biso   1.000  Nb
  Nb4      1.0000 0.00000  0.50000  0.50000  Biso   1.000  Nb
  Ta1      1.0000 0.35880  0.14596  0.00589  Biso   1.000  Ta
  Ta2      1.0000 0.86106  0.64822  0.00815  Biso   1.000  Ta
  Ta3      1.0000 0.35178  0.13894  0.49185  Biso   1.000  Ta
  Ta4      1.0000 0.85404  0.64120  0.49411  Biso   1.000  Ta
  Ta5      1.0000 0.64120  0.85404  0.99411  Biso   1.000  Ta
  Ta6      1.0000 0.13894  0.35178  0.99185  Biso   1.000  Ta
  Ta7      1.0000 0.64822  0.86106  0.50815  Biso   1.000  Ta
  Ta8      1.0000 0.14596  0.35880  0.50589  Biso   1.000  Ta
  O1       1.0000 0.47798  0.02202  0.25000  Biso   1.000  O
  O2       1.0000 0.97798  0.52202  0.25000  Biso   1.000  O
  O3       1.0000 0.52202  0.97798  0.75000  Biso   1.000  O
  O4       1.0000 0.02202  0.47798  0.75000  Biso   1.000  O
  O5       1.0000 0.77102  0.22898  0.25000  Biso   1.000  O
  O6       1.0000 0.18494  0.81506  0.25000  Biso   1.000  O
  O7       1.0000 0.81506  0.18494  0.75000  Biso   1.000  O
  O8       1.0000 0.22898  0.77102  0.75000  Biso   1.000  O
  O9       1.0000 0.44743  0.07767  0.99152  Biso   1.000  O
  O10      1.0000 0.88026  0.51050  0.92434  Biso   1.000  O
  O11      1.0000 0.48950  0.11974  0.57566  Biso   1.000  O
  O12      1.0000 0.92233  0.55257  0.50848  Biso   1.000  O
  O13      1.0000 0.55257  0.92233  0.00848  Biso   1.000  O
  O14      1.0000 0.11974  0.48950  0.07566  Biso   1.000  O
  O15      1.0000 0.51050  0.88026  0.42434  Biso   1.000  O
  O16      1.0000 0.07767  0.44743  0.49152  Biso   1.000  O
  O17      1.0000 0.37708  0.11471  0.24589  Biso   1.000  O
  O18      1.0000 0.88529  0.62292  0.25411  Biso   1.000  O
  O19      1.0000 0.35235  0.13944  0.74589  Biso   1.000  O
  O20      1.0000 0.86056  0.64765  0.75411  Biso   1.000  O
  O21      1.0000 0.62292  0.88529  0.75411  Biso   1.000  O
  O22      1.0000 0.11471  0.37708  0.74589  Biso   1.000  O
  O23      1.0000 0.64765  0.86056  0.25411  Biso   1.000  O
  O24      1.0000 0.13944  0.35235  0.24589  Biso   1.000  O
  O25      1.0000 0.87499  0.12501  0.25000  Biso   1.000  O
  O26      1.0000 0.41210  0.58790  0.25000  Biso   1.000  O
  O27      1.0000 0.85026  0.14974  0.75000  Biso   1.000  O
  O28      1.0000 0.38737  0.61263  0.75000  Biso   1.000  O
  O29      1.0000 0.61263  0.38737  0.25000  Biso   1.000  O
  O30      1.0000 0.14974  0.85026  0.25000  Biso   1.000  O
  O31      1.0000 0.58790  0.41210  0.75000  Biso   1.000  O
  O32      1.0000 0.12501  0.87499  0.75000  Biso   1.000  O
  O33      1.0000 0.30358  0.20732  0.01790  Biso   1.000  O
  O34      1.0000 0.81758  0.72132  0.03190  Biso   1.000  O
  O35      1.0000 0.27868  0.18242  0.46810  Biso   1.000  O
  O36      1.0000 0.79268  0.69642  0.48210  Biso   1.000  O
  O37      1.0000 0.69642  0.79268  0.98210  Biso   1.000  O
  O38      1.0000 0.18242  0.27868  0.96810  Biso   1.000  O
  O39      1.0000 0.72132  0.81758  0.53190  Biso   1.000  O
  O40      1.0000 0.20732  0.30358  0.51790  Biso   1.000  O
