data_image0
_cell_length_a       16.1647
_cell_length_b       16.1647
_cell_length_c       16.1647
_cell_angle_alpha    151.885
_cell_angle_beta     40.1819
_cell_angle_gamma    151.885

_symmetry_space_group_name_H-M    "P 1"
_symmetry_int_tables_number       1

loop_
  _symmetry_equiv_pos_as_xyz
  'x, y, z'

loop_
  _atom_site_label
  _atom_site_occupancy
  _atom_site_fract_x
  _atom_site_fract_y
  _atom_site_fract_z
  _atom_site_thermal_displace_type
  _atom_site_B_iso_or_equiv
  _atom_site_type_symbol
  K1       1.0000 0.25000  0.42930  0.67930  Biso   1.000  K
  K2       1.0000 0.75000  0.57070  0.32070  Biso   1.000  K
  K3       1.0000 0.75000  0.07070  0.82070  Biso   1.000  K
  K4       1.0000 0.25000  0.92930  0.17930  Biso   1.000  K
  Pb1      1.0000 0.07337  0.46843  0.54180  Biso   1.000  Pb
  Pb2      1.0000 0.57337  0.46902  0.04239  Biso   1.000  Pb
  Pb3      1.0000 0.57337  0.03157  0.60494  Biso   1.000  Pb
  Pb4      1.0000 0.07337  0.03098  0.10435  Biso   1.000  Pb
  Pb5      1.0000 0.42663  0.96843  0.39506  Biso   1.000  Pb
  Pb6      1.0000 0.92663  0.96902  0.89565  Biso   1.000  Pb
  Pb7      1.0000 0.92663  0.53157  0.45820  Biso   1.000  Pb
  Pb8      1.0000 0.42663  0.53098  0.95761  Biso   1.000  Pb
  Nb1      1.0000 0.75000  0.50000  0.75000  Biso   1.000  Nb
  Nb2      1.0000 0.25000  0.50000  0.25000  Biso   1.000  Nb
  Nb3      1.0000 0.25000  1.00000  0.75000  Biso   1.000  Nb
  Nb4      1.0000 0.75000  0.00000  0.25000  Biso   1.000  Nb
  Ta1      1.0000 0.90060  0.50702  0.89358  Biso   1.000  Ta
  Ta2      1.0000 0.40060  0.50702  0.39358  Biso   1.000  Ta
  Ta3      1.0000 0.38656  0.99298  0.89358  Biso   1.000  Ta
  Ta4      1.0000 0.88656  0.99298  0.39358  Biso   1.000  Ta
  Ta5      1.0000 0.59940  0.49298  0.60642  Biso   1.000  Ta
  Ta6      1.0000 0.09940  0.49298  0.10642  Biso   1.000  Ta
  Ta7      1.0000 0.11344  0.00702  0.60642  Biso   1.000  Ta
  Ta8      1.0000 0.61344  0.00702  0.10642  Biso   1.000  Ta
  O1       1.0000 0.04404  0.75000  0.79404  Biso   1.000  O
  O2       1.0000 0.54404  0.75000  0.29404  Biso   1.000  O
  O3       1.0000 0.45596  0.25000  0.70596  Biso   1.000  O
  O4       1.0000 0.95596  0.25000  0.20596  Biso   1.000  O
  O5       1.0000 0.75000  0.75000  0.00000  Biso   1.000  O
  O6       1.0000 0.25000  0.75000  0.50000  Biso   1.000  O
  O7       1.0000 0.25000  0.25000  0.00000  Biso   1.000  O
  O8       1.0000 0.75000  0.25000  0.50000  Biso   1.000  O
  O9       1.0000 0.77305  0.45793  0.81512  Biso   1.000  O
  O10      1.0000 0.27305  0.45793  0.31512  Biso   1.000  O
  O11      1.0000 0.35719  0.04207  0.81512  Biso   1.000  O
  O12      1.0000 0.85719  0.04207  0.31512  Biso   1.000  O
  O13      1.0000 0.72695  0.54207  0.68488  Biso   1.000  O
  O14      1.0000 0.22695  0.54207  0.18488  Biso   1.000  O
  O15      1.0000 0.14281  0.95793  0.68488  Biso   1.000  O
  O16      1.0000 0.64281  0.95793  0.18488  Biso   1.000  O
  O17      1.0000 0.10645  0.75039  0.85685  Biso   1.000  O
  O18      1.0000 0.60645  0.74961  0.35606  Biso   1.000  O
  O19      1.0000 0.65591  0.24961  0.90551  Biso   1.000  O
  O20      1.0000 0.15591  0.25039  0.40630  Biso   1.000  O
  O21      1.0000 0.39355  0.25039  0.64394  Biso   1.000  O
  O22      1.0000 0.89355  0.24961  0.14315  Biso   1.000  O
  O23      1.0000 0.84409  0.74961  0.59370  Biso   1.000  O
  O24      1.0000 0.34409  0.75039  0.09449  Biso   1.000  O
  O25      1.0000 0.61882  0.75000  0.86882  Biso   1.000  O
  O26      1.0000 0.11882  0.75000  0.36882  Biso   1.000  O
  O27      1.0000 0.11882  0.25000  0.86882  Biso   1.000  O
  O28      1.0000 0.61882  0.25000  0.36882  Biso   1.000  O
  O29      1.0000 0.88118  0.75000  0.13118  Biso   1.000  O
  O30      1.0000 0.38118  0.75000  0.63118  Biso   1.000  O
  O31      1.0000 0.38118  0.25000  0.13118  Biso   1.000  O
  O32      1.0000 0.88118  0.25000  0.63118  Biso   1.000  O
  O33      1.0000 0.97677  0.52490  0.95187  Biso   1.000  O
  O34      1.0000 0.47677  0.52490  0.45187  Biso   1.000  O
  O35      1.0000 0.42697  0.97510  0.95187  Biso   1.000  O
  O36      1.0000 0.92697  0.97510  0.45187  Biso   1.000  O
  O37      1.0000 0.52323  0.47510  0.54813  Biso   1.000  O
  O38      1.0000 0.02323  0.47510  0.04813  Biso   1.000  O
  O39      1.0000 0.07303  0.02490  0.54813  Biso   1.000  O
  O40      1.0000 0.57303  0.02490  0.04813  Biso   1.000  O
