data_image0
_cell_length_a       16.1647
_cell_length_b       16.1647
_cell_length_c       16.1647
_cell_angle_alpha    151.885
_cell_angle_beta     40.1819
_cell_angle_gamma    151.885

_symmetry_space_group_name_H-M    "P 1"
_symmetry_int_tables_number       1

loop_
  _symmetry_equiv_pos_as_xyz
  'x, y, z'

loop_
  _atom_site_label
  _atom_site_occupancy
  _atom_site_fract_x
  _atom_site_fract_y
  _atom_site_fract_z
  _atom_site_thermal_displace_type
  _atom_site_B_iso_or_equiv
  _atom_site_type_symbol
  K1       1.0000 0.57528  0.07528  0.50000  Biso   1.000  K
  K2       1.0000 0.07528  0.07528  0.00000  Biso   1.000  K
  K3       1.0000 0.92472  0.42472  0.50000  Biso   1.000  K
  K4       1.0000 0.42472  0.42472  0.00000  Biso   1.000  K
  Pb1      1.0000 0.28693  0.97515  0.31178  Biso   1.000  Pb
  Pb2      1.0000 0.81011  0.97515  0.83496  Biso   1.000  Pb
  Pb3      1.0000 0.84822  0.52485  0.32337  Biso   1.000  Pb
  Pb4      1.0000 0.34822  0.52485  0.82337  Biso   1.000  Pb
  Pb5      1.0000 0.70148  0.52485  0.17663  Biso   1.000  Pb
  Pb6      1.0000 0.20148  0.52485  0.67663  Biso   1.000  Pb
  Pb7      1.0000 0.14019  0.97515  0.16504  Biso   1.000  Pb
  Pb8      1.0000 0.66337  0.97515  0.68822  Biso   1.000  Pb
  Nb1      1.0000 1.00000  0.99938  0.49938  Biso   1.000  Nb
  Nb2      1.0000 0.50000  0.99938  0.99938  Biso   1.000  Nb
  Nb3      1.0000 0.50000  0.50062  0.50062  Biso   1.000  Nb
  Nb4      1.0000 0.00000  0.50062  0.00062  Biso   1.000  Nb
  Ta1      1.0000 0.14471  0.01164  0.65409  Biso   1.000  Ta
  Ta2      1.0000 0.64245  0.01164  0.15635  Biso   1.000  Ta
  Ta3      1.0000 0.64245  0.48611  0.63081  Biso   1.000  Ta
  Ta4      1.0000 0.14471  0.49062  0.13307  Biso   1.000  Ta
  Ta5      1.0000 0.85529  0.01164  0.36919  Biso   1.000  Ta
  Ta6      1.0000 0.35755  0.01164  0.86693  Biso   1.000  Ta
  Ta7      1.0000 0.35755  0.49062  0.34591  Biso   1.000  Ta
  Ta8      1.0000 0.85529  0.48611  0.84365  Biso   1.000  Ta
  O1       1.0000 0.29304  0.25000  0.54304  Biso   1.000  O
  O2       1.0000 0.70696  0.25000  0.95696  Biso   1.000  O
  O3       1.0000 0.70696  0.75000  0.45696  Biso   1.000  O
  O4       1.0000 0.29304  0.75000  0.04304  Biso   1.000  O
  O5       1.0000 0.95696  0.25000  0.70696  Biso   1.000  O
  O6       1.0000 0.54304  0.25000  0.29304  Biso   1.000  O
  O7       1.0000 0.45696  0.75000  0.70696  Biso   1.000  O
  O8       1.0000 0.04304  0.75000  0.29304  Biso   1.000  O
  O9       1.0000 0.03153  0.98845  0.58716  Biso   1.000  O
  O10      1.0000 0.59871  0.98845  0.01998  Biso   1.000  O
  O11      1.0000 0.59871  0.57872  0.61026  Biso   1.000  O
  O12      1.0000 0.03153  0.44437  0.04308  Biso   1.000  O
  O13      1.0000 0.96847  0.98845  0.38974  Biso   1.000  O
  O14      1.0000 0.40129  0.98845  0.95692  Biso   1.000  O
  O15      1.0000 0.40129  0.44437  0.41284  Biso   1.000  O
  O16      1.0000 0.96847  0.57872  0.98002  Biso   1.000  O
  O17      1.0000 0.36262  0.24589  0.60852  Biso   1.000  O
  O18      1.0000 0.89974  0.25411  0.15384  Biso   1.000  O
  O19      1.0000 0.89974  0.74589  0.64563  Biso   1.000  O
  O20      1.0000 0.36262  0.75411  0.11673  Biso   1.000  O
  O21      1.0000 0.63738  0.75411  0.39148  Biso   1.000  O
  O22      1.0000 0.10026  0.74589  0.84616  Biso   1.000  O
  O23      1.0000 0.10026  0.25411  0.35437  Biso   1.000  O
  O24      1.0000 0.63738  0.24589  0.88327  Biso   1.000  O
  O25      1.0000 0.90065  0.24589  0.65476  Biso   1.000  O
  O26      1.0000 0.37175  0.25411  0.11765  Biso   1.000  O
  O27      1.0000 0.37410  0.75411  0.61999  Biso   1.000  O
  O28      1.0000 0.82878  0.74589  0.08288  Biso   1.000  O
  O29      1.0000 0.13646  0.25411  0.88235  Biso   1.000  O
  O30      1.0000 0.59114  0.24589  0.34524  Biso   1.000  O
  O31      1.0000 0.66301  0.74589  0.91712  Biso   1.000  O
  O32      1.0000 0.13411  0.75411  0.38001  Biso   1.000  O
  O33      1.0000 0.20887  0.03127  0.72614  Biso   1.000  O
  O34      1.0000 0.69487  0.03127  0.24014  Biso   1.000  O
  O35      1.0000 0.69487  0.45474  0.66360  Biso   1.000  O
  O36      1.0000 0.20887  0.48272  0.17760  Biso   1.000  O
  O37      1.0000 0.79113  0.03127  0.33640  Biso   1.000  O
  O38      1.0000 0.30513  0.03127  0.82240  Biso   1.000  O
  O39      1.0000 0.30513  0.48272  0.27386  Biso   1.000  O
  O40      1.0000 0.79113  0.45474  0.75986  Biso   1.000  O
