data_image0
_cell_length_a       16.1647
_cell_length_b       16.1647
_cell_length_c       16.1647
_cell_angle_alpha    40.1819
_cell_angle_beta     151.885
_cell_angle_gamma    151.885

_symmetry_space_group_name_H-M    "P 1"
_symmetry_int_tables_number       1

loop_
  _symmetry_equiv_pos_as_xyz
  'x, y, z'

loop_
  _atom_site_label
  _atom_site_occupancy
  _atom_site_fract_x
  _atom_site_fract_y
  _atom_site_fract_z
  _atom_site_thermal_displace_type
  _atom_site_B_iso_or_equiv
  _atom_site_type_symbol
  K1       1.0000 0.17472  0.73377  0.05906  Biso   1.000  K
  K2       1.0000 0.17472  0.11566  0.44094  Biso   1.000  K
  K3       1.0000 0.82528  0.26623  0.94094  Biso   1.000  K
  K4       1.0000 0.82528  0.88434  0.55906  Biso   1.000  K
  Pb1      1.0000 0.27485  0.60165  0.82680  Biso   1.000  Pb
  Pb2      1.0000 0.27485  0.09479  0.31994  Biso   1.000  Pb
  Pb3      1.0000 0.72515  0.04509  0.81994  Biso   1.000  Pb
  Pb4      1.0000 0.72515  0.55195  0.32680  Biso   1.000  Pb
  Pb5      1.0000 0.72515  0.90521  0.68006  Biso   1.000  Pb
  Pb6      1.0000 0.72515  0.39835  0.17320  Biso   1.000  Pb
  Pb7      1.0000 0.27485  0.44805  0.67320  Biso   1.000  Pb
  Pb8      1.0000 0.27485  0.95491  0.18006  Biso   1.000  Pb
  Nb1      1.0000 0.74759  0.74821  0.99938  Biso   1.000  Nb
  Nb2      1.0000 0.75117  0.25179  0.49938  Biso   1.000  Nb
  Nb3      1.0000 0.25241  0.25179  0.00062  Biso   1.000  Nb
  Nb4      1.0000 0.24883  0.74821  0.50062  Biso   1.000  Nb
  Ta1      1.0000 0.76690  0.89884  0.15522  Biso   1.000  Ta
  Ta2      1.0000 0.75638  0.38832  0.65522  Biso   1.000  Ta
  Ta3      1.0000 0.23310  0.38832  0.13194  Biso   1.000  Ta
  Ta4      1.0000 0.24362  0.89884  0.63194  Biso   1.000  Ta
  Ta5      1.0000 0.76690  0.61168  0.86806  Biso   1.000  Ta
  Ta6      1.0000 0.75638  0.10116  0.36806  Biso   1.000  Ta
  Ta7      1.0000 0.23310  0.10116  0.84478  Biso   1.000  Ta
  Ta8      1.0000 0.24362  0.61168  0.34478  Biso   1.000  Ta
  O1       1.0000 0.50000  0.50000  0.00000  Biso   1.000  O
  O2       1.0000 0.50000  0.00000  0.50000  Biso   1.000  O
  O3       1.0000 0.00000  0.00000  0.00000  Biso   1.000  O
  O4       1.0000 0.00000  0.50000  0.50000  Biso   1.000  O
  O5       1.0000 0.00074  0.75074  0.25000  Biso   1.000  O
  O6       1.0000 0.99926  0.24926  0.75000  Biso   1.000  O
  O7       1.0000 0.49926  0.24926  0.25000  Biso   1.000  O
  O8       1.0000 0.50074  0.75074  0.75000  Biso   1.000  O
  O9       1.0000 0.73245  0.80912  0.05357  Biso   1.000  O
  O10      1.0000 0.74445  0.32112  0.55357  Biso   1.000  O
  O11      1.0000 0.26755  0.32112  0.07667  Biso   1.000  O
  O12      1.0000 0.25555  0.80912  0.57667  Biso   1.000  O
  O13      1.0000 0.73245  0.67888  0.92333  Biso   1.000  O
  O14      1.0000 0.74445  0.19088  0.42333  Biso   1.000  O
  O15      1.0000 0.26755  0.19088  0.94643  Biso   1.000  O
  O16      1.0000 0.25555  0.67888  0.44643  Biso   1.000  O
  O17      1.0000 0.50000  0.64368  0.14368  Biso   1.000  O
  O18      1.0000 0.50000  0.11868  0.61868  Biso   1.000  O
  O19      1.0000 0.00000  0.11868  0.11868  Biso   1.000  O
  O20      1.0000 1.00000  0.64368  0.64368  Biso   1.000  O
  O21      1.0000 0.00000  0.88132  0.88132  Biso   1.000  O
  O22      1.0000 1.00000  0.35632  0.35632  Biso   1.000  O
  O23      1.0000 0.50000  0.35632  0.85632  Biso   1.000  O
  O24      1.0000 0.50000  0.88132  0.38132  Biso   1.000  O
  O25      1.0000 0.00137  0.63757  0.13620  Biso   1.000  O
  O26      1.0000 0.99863  0.13484  0.63620  Biso   1.000  O
  O27      1.0000 0.49863  0.10007  0.10144  Biso   1.000  O
  O28      1.0000 0.50137  0.60280  0.60144  Biso   1.000  O
  O29      1.0000 0.00137  0.86516  0.36380  Biso   1.000  O
  O30      1.0000 0.99863  0.36243  0.86380  Biso   1.000  O
  O31      1.0000 0.49863  0.39720  0.39856  Biso   1.000  O
  O32      1.0000 0.50137  0.89993  0.89856  Biso   1.000  O
  O33      1.0000 0.80406  0.97466  0.23314  Biso   1.000  O
  O34      1.0000 0.75848  0.42908  0.73314  Biso   1.000  O
  O35      1.0000 0.19594  0.42908  0.17060  Biso   1.000  O
  O36      1.0000 0.24152  0.97466  0.67060  Biso   1.000  O
  O37      1.0000 0.80406  0.57092  0.82940  Biso   1.000  O
  O38      1.0000 0.75848  0.02534  0.32940  Biso   1.000  O
  O39      1.0000 0.19594  0.02534  0.76686  Biso   1.000  O
  O40      1.0000 0.24152  0.57092  0.26686  Biso   1.000  O
