data_image0
_cell_length_a       5.55277
_cell_length_b       15.1811
_cell_length_c       5.55277
_cell_angle_alpha    90
_cell_angle_beta     90
_cell_angle_gamma    90

_symmetry_space_group_name_H-M    "P 1"
_symmetry_int_tables_number       1

loop_
  _symmetry_equiv_pos_as_xyz
  'x, y, z'

loop_
  _atom_site_label
  _atom_site_occupancy
  _atom_site_fract_x
  _atom_site_fract_y
  _atom_site_fract_z
  _atom_site_thermal_displace_type
  _atom_site_B_iso_or_equiv
  _atom_site_type_symbol
  K1       1.0000 0.07528  0.50000  0.50000  Biso   1.000  K
  K2       1.0000 0.42472  0.50000  0.00000  Biso   1.000  K
  Pb1      1.0000 0.95786  0.85326  0.51729  Biso   1.000  Pb
  Pb2      1.0000 0.50757  0.85326  0.01729  Biso   1.000  Pb
  Pb3      1.0000 0.50757  0.14674  0.01729  Biso   1.000  Pb
  Pb4      1.0000 0.95786  0.14674  0.51729  Biso   1.000  Pb
  Nb1      1.0000 0.98258  0.00000  0.01680  Biso   1.000  Nb
  Nb2      1.0000 0.48382  0.00000  0.51680  Biso   1.000  Nb
  Ta1      1.0000 0.02386  0.71284  0.98778  Biso   1.000  Ta
  Ta2      1.0000 0.50058  0.71284  0.48778  Biso   1.000  Ta
  Ta3      1.0000 0.02386  0.28716  0.98778  Biso   1.000  Ta
  Ta4      1.0000 0.50058  0.28716  0.48778  Biso   1.000  Ta
  O1       1.0000 0.26979  0.00000  0.73021  Biso   1.000  O
  O2       1.0000 0.76979  0.00000  0.23021  Biso   1.000  O
  O3       1.0000 0.29185  0.00000  0.20815  Biso   1.000  O
  O4       1.0000 0.79185  0.00000  0.70815  Biso   1.000  O
  O5       1.0000 0.01153  0.86976  0.97692  Biso   1.000  O
  O6       1.0000 0.53463  0.86976  0.47692  Biso   1.000  O
  O7       1.0000 0.01153  0.13024  0.97692  Biso   1.000  O
  O8       1.0000 0.53463  0.13024  0.47692  Biso   1.000  O
  O9       1.0000 0.25973  0.75502  0.74027  Biso   1.000  O
  O10      1.0000 0.75973  0.72026  0.24027  Biso   1.000  O
  O11      1.0000 0.75973  0.27974  0.24027  Biso   1.000  O
  O12      1.0000 0.25973  0.24498  0.74027  Biso   1.000  O
  O13      1.0000 0.26255  0.24498  0.23745  Biso   1.000  O
  O14      1.0000 0.76255  0.27974  0.73745  Biso   1.000  O
  O15      1.0000 0.26255  0.75502  0.23745  Biso   1.000  O
  O16      1.0000 0.76255  0.72026  0.73745  Biso   1.000  O
  O17      1.0000 0.03867  0.59626  0.99260  Biso   1.000  O
  O18      1.0000 0.47613  0.59626  0.49260  Biso   1.000  O
  O19      1.0000 0.03867  0.40374  0.99260  Biso   1.000  O
  O20      1.0000 0.47613  0.40374  0.49260  Biso   1.000  O
