data_image0
_cell_length_a       16.1647
_cell_length_b       16.1647
_cell_length_c       7.8528
_cell_angle_alpha    104.058
_cell_angle_beta     104.058
_cell_angle_gamma    139.818

_symmetry_space_group_name_H-M    "P 1"
_symmetry_int_tables_number       1

loop_
  _symmetry_equiv_pos_as_xyz
  'x, y, z'

loop_
  _atom_site_label
  _atom_site_occupancy
  _atom_site_fract_x
  _atom_site_fract_y
  _atom_site_fract_z
  _atom_site_thermal_displace_type
  _atom_site_B_iso_or_equiv
  _atom_site_type_symbol
  K1       1.0000 0.03764  0.03764  0.82528  Biso   1.000  K
  K2       1.0000 0.53764  0.53764  0.82528  Biso   1.000  K
  K3       1.0000 0.96236  0.96236  0.17472  Biso   1.000  K
  K4       1.0000 0.46236  0.46236  0.17472  Biso   1.000  K
  Pb1      1.0000 0.17000  0.80515  0.72515  Biso   1.000  Pb
  Pb2      1.0000 0.65841  0.31674  0.72515  Biso   1.000  Pb
  Pb3      1.0000 0.19485  0.83000  0.27485  Biso   1.000  Pb
  Pb4      1.0000 0.68326  0.34159  0.27485  Biso   1.000  Pb
  Pb5      1.0000 0.34159  0.68326  0.27485  Biso   1.000  Pb
  Pb6      1.0000 0.83000  0.19485  0.27485  Biso   1.000  Pb
  Pb7      1.0000 0.31674  0.65841  0.72515  Biso   1.000  Pb
  Pb8      1.0000 0.80515  0.17000  0.72515  Biso   1.000  Pb
  Nb1      1.0000 0.49969  0.99969  0.74938  Biso   1.000  Nb
  Nb2      1.0000 0.99969  0.49969  0.74938  Biso   1.000  Nb
  Nb3      1.0000 0.50031  0.00031  0.25062  Biso   1.000  Nb
  Nb4      1.0000 0.00031  0.50031  0.25062  Biso   1.000  Nb
  Ta1      1.0000 0.36111  0.14827  0.76051  Biso   1.000  Ta
  Ta2      1.0000 0.86337  0.65053  0.76277  Biso   1.000  Ta
  Ta3      1.0000 0.34947  0.13663  0.23723  Biso   1.000  Ta
  Ta4      1.0000 0.85173  0.63889  0.23949  Biso   1.000  Ta
  Ta5      1.0000 0.65053  0.86337  0.76277  Biso   1.000  Ta
  Ta6      1.0000 0.14827  0.36111  0.76051  Biso   1.000  Ta
  Ta7      1.0000 0.63889  0.85173  0.23949  Biso   1.000  Ta
  Ta8      1.0000 0.13663  0.34947  0.23723  Biso   1.000  Ta
  O1       1.0000 0.50000  0.00000  0.00000  Biso   1.000  O
  O2       1.0000 0.00000  0.50000  0.00000  Biso   1.000  O
  O3       1.0000 0.50000  0.00000  0.50000  Biso   1.000  O
  O4       1.0000 0.00000  0.50000  0.50000  Biso   1.000  O
  O5       1.0000 0.79304  0.20696  0.00000  Biso   1.000  O
  O6       1.0000 0.20696  0.79304  0.00000  Biso   1.000  O
  O7       1.0000 0.79304  0.20696  0.50000  Biso   1.000  O
  O8       1.0000 0.20696  0.79304  0.50000  Biso   1.000  O
  O9       1.0000 0.46269  0.09293  0.77204  Biso   1.000  O
  O10      1.0000 0.89552  0.52576  0.70486  Biso   1.000  O
  O11      1.0000 0.47424  0.10448  0.29514  Biso   1.000  O
  O12      1.0000 0.90707  0.53731  0.22796  Biso   1.000  O
  O13      1.0000 0.52576  0.89552  0.70486  Biso   1.000  O
  O14      1.0000 0.09293  0.46269  0.77204  Biso   1.000  O
  O15      1.0000 0.53731  0.90707  0.22796  Biso   1.000  O
  O16      1.0000 0.10448  0.47424  0.29514  Biso   1.000  O
  O17      1.0000 0.37341  0.11838  0.99589  Biso   1.000  O
  O18      1.0000 0.88162  0.62659  0.00411  Biso   1.000  O
  O19      1.0000 0.35602  0.13577  0.49589  Biso   1.000  O
  O20      1.0000 0.86423  0.64398  0.50411  Biso   1.000  O
  O21      1.0000 0.64398  0.86423  0.50411  Biso   1.000  O
  O22      1.0000 0.13577  0.35602  0.49589  Biso   1.000  O
  O23      1.0000 0.62659  0.88162  0.00411  Biso   1.000  O
  O24      1.0000 0.11838  0.37341  0.99589  Biso   1.000  O
  O25      1.0000 0.85393  0.14607  0.00000  Biso   1.000  O
  O26      1.0000 0.39104  0.60896  0.00000  Biso   1.000  O
  O27      1.0000 0.87132  0.12868  0.50000  Biso   1.000  O
  O28      1.0000 0.40843  0.59157  0.50000  Biso   1.000  O
  O29      1.0000 0.60896  0.39104  0.00000  Biso   1.000  O
  O30      1.0000 0.14607  0.85393  0.00000  Biso   1.000  O
  O31      1.0000 0.59157  0.40843  0.50000  Biso   1.000  O
  O32      1.0000 0.12868  0.87132  0.50000  Biso   1.000  O
  O33      1.0000 0.30677  0.21051  0.77427  Biso   1.000  O
  O34      1.0000 0.82076  0.72450  0.78827  Biso   1.000  O
  O35      1.0000 0.27550  0.17924  0.21173  Biso   1.000  O
  O36      1.0000 0.78949  0.69323  0.22573  Biso   1.000  O
  O37      1.0000 0.72450  0.82076  0.78827  Biso   1.000  O
  O38      1.0000 0.21051  0.30677  0.77427  Biso   1.000  O
  O39      1.0000 0.69323  0.78949  0.22573  Biso   1.000  O
  O40      1.0000 0.17924  0.27550  0.21173  Biso   1.000  O
