data_image0
_cell_length_a       16.1647
_cell_length_b       16.1647
_cell_length_c       7.8528
_cell_angle_alpha    104.058
_cell_angle_beta     104.058
_cell_angle_gamma    139.818

_symmetry_space_group_name_H-M    "P 1"
_symmetry_int_tables_number       1

loop_
  _symmetry_equiv_pos_as_xyz
  'x, y, z'

loop_
  _atom_site_label
  _atom_site_occupancy
  _atom_site_fract_x
  _atom_site_fract_y
  _atom_site_fract_z
  _atom_site_thermal_displace_type
  _atom_site_B_iso_or_equiv
  _atom_site_type_symbol
  K1       1.0000 0.22858  0.84670  0.82528  Biso   1.000  K
  K2       1.0000 0.84670  0.22858  0.82528  Biso   1.000  K
  K3       1.0000 0.15330  0.77142  0.17472  Biso   1.000  K
  K4       1.0000 0.77142  0.15330  0.17472  Biso   1.000  K
  Pb1      1.0000 0.41077  0.56437  0.72515  Biso   1.000  Pb
  Pb2      1.0000 0.91763  0.05751  0.72515  Biso   1.000  Pb
  Pb3      1.0000 0.43563  0.58923  0.27485  Biso   1.000  Pb
  Pb4      1.0000 0.94249  0.08237  0.27485  Biso   1.000  Pb
  Pb5      1.0000 0.58923  0.43563  0.27485  Biso   1.000  Pb
  Pb6      1.0000 0.08237  0.94249  0.27485  Biso   1.000  Pb
  Pb7      1.0000 0.56437  0.41077  0.72515  Biso   1.000  Pb
  Pb8      1.0000 0.05751  0.91763  0.72515  Biso   1.000  Pb
  Nb1      1.0000 0.74790  0.74790  0.74759  Biso   1.000  Nb
  Nb2      1.0000 0.25148  0.25148  0.75117  Biso   1.000  Nb
  Nb3      1.0000 0.74852  0.74852  0.24883  Biso   1.000  Nb
  Nb4      1.0000 0.25210  0.25210  0.25241  Biso   1.000  Nb
  Ta1      1.0000 0.61750  0.90466  0.76690  Biso   1.000  Ta
  Ta2      1.0000 0.10698  0.39414  0.75638  Biso   1.000  Ta
  Ta3      1.0000 0.60586  0.89302  0.24362  Biso   1.000  Ta
  Ta4      1.0000 0.09534  0.38250  0.23310  Biso   1.000  Ta
  Ta5      1.0000 0.90466  0.61750  0.76690  Biso   1.000  Ta
  Ta6      1.0000 0.39414  0.10698  0.75638  Biso   1.000  Ta
  Ta7      1.0000 0.89302  0.60586  0.24362  Biso   1.000  Ta
  Ta8      1.0000 0.38250  0.09534  0.23310  Biso   1.000  Ta
  O1       1.0000 0.75074  0.75074  0.00074  Biso   1.000  O
  O2       1.0000 0.24926  0.24926  0.99926  Biso   1.000  O
  O3       1.0000 0.75074  0.75074  0.50074  Biso   1.000  O
  O4       1.0000 0.24926  0.24926  0.49926  Biso   1.000  O
  O5       1.0000 0.00000  0.00000  0.00000  Biso   1.000  O
  O6       1.0000 0.50000  0.50000  0.00000  Biso   1.000  O
  O7       1.0000 0.00000  0.00000  0.50000  Biso   1.000  O
  O8       1.0000 0.50000  0.50000  0.50000  Biso   1.000  O
  O9       1.0000 0.67311  0.80335  0.73245  Biso   1.000  O
  O10      1.0000 0.18511  0.31535  0.74445  Biso   1.000  O
  O11      1.0000 0.68465  0.81489  0.25555  Biso   1.000  O
  O12      1.0000 0.19665  0.32689  0.26755  Biso   1.000  O
  O13      1.0000 0.80335  0.67311  0.73245  Biso   1.000  O
  O14      1.0000 0.31535  0.18511  0.74445  Biso   1.000  O
  O15      1.0000 0.81489  0.68465  0.25555  Biso   1.000  O
  O16      1.0000 0.32689  0.19665  0.26755  Biso   1.000  O
  O17      1.0000 0.62888  0.87386  0.00137  Biso   1.000  O
  O18      1.0000 0.12614  0.37112  0.99863  Biso   1.000  O
  O19      1.0000 0.61150  0.89124  0.50137  Biso   1.000  O
  O20      1.0000 0.10876  0.38850  0.49863  Biso   1.000  O
  O21      1.0000 0.89124  0.61150  0.50137  Biso   1.000  O
  O22      1.0000 0.38850  0.10876  0.49863  Biso   1.000  O
  O23      1.0000 0.87386  0.62888  0.00137  Biso   1.000  O
  O24      1.0000 0.37112  0.12614  0.99863  Biso   1.000  O
  O25      1.0000 0.10999  0.89001  0.00000  Biso   1.000  O
  O26      1.0000 0.63499  0.36501  0.00000  Biso   1.000  O
  O27      1.0000 0.12737  0.87263  0.50000  Biso   1.000  O
  O28      1.0000 0.65237  0.34763  0.50000  Biso   1.000  O
  O29      1.0000 0.89001  0.10999  0.00000  Biso   1.000  O
  O30      1.0000 0.36501  0.63499  0.00000  Biso   1.000  O
  O31      1.0000 0.87263  0.12737  0.50000  Biso   1.000  O
  O32      1.0000 0.34763  0.65237  0.50000  Biso   1.000  O
  O33      1.0000 0.58655  0.99029  0.80406  Biso   1.000  O
  O34      1.0000 0.04098  0.44472  0.75848  Biso   1.000  O
  O35      1.0000 0.55528  0.95902  0.24152  Biso   1.000  O
  O36      1.0000 0.00971  0.41345  0.19594  Biso   1.000  O
  O37      1.0000 0.99029  0.58655  0.80406  Biso   1.000  O
  O38      1.0000 0.44472  0.04098  0.75848  Biso   1.000  O
  O39      1.0000 0.95902  0.55528  0.24152  Biso   1.000  O
  O40      1.0000 0.41345  0.00971  0.19594  Biso   1.000  O
