data_image0
_cell_length_a       16.1647
_cell_length_b       16.1647
_cell_length_c       16.1647
_cell_angle_alpha    151.885
_cell_angle_beta     40.1819
_cell_angle_gamma    151.885

_symmetry_space_group_name_H-M    "P 1"
_symmetry_int_tables_number       1

loop_
  _symmetry_equiv_pos_as_xyz
  'x, y, z'

loop_
  _atom_site_label
  _atom_site_occupancy
  _atom_site_fract_x
  _atom_site_fract_y
  _atom_site_fract_z
  _atom_site_thermal_displace_type
  _atom_site_B_iso_or_equiv
  _atom_site_type_symbol
  K1       1.0000 0.30906  0.42930  0.73835  Biso   1.000  K
  K2       1.0000 0.69094  0.57070  0.26165  Biso   1.000  K
  K3       1.0000 0.80906  0.07070  0.87976  Biso   1.000  K
  K4       1.0000 0.19094  0.92930  0.12024  Biso   1.000  K
  Pb1      1.0000 0.07680  0.49970  0.57650  Biso   1.000  Pb
  Pb2      1.0000 0.56994  0.50030  0.07024  Biso   1.000  Pb
  Pb3      1.0000 0.57680  0.00030  0.57710  Biso   1.000  Pb
  Pb4      1.0000 0.06994  0.99970  0.06964  Biso   1.000  Pb
  Pb5      1.0000 0.42320  0.99970  0.42290  Biso   1.000  Pb
  Pb6      1.0000 0.93006  0.00030  0.93036  Biso   1.000  Pb
  Pb7      1.0000 0.92320  0.50030  0.42350  Biso   1.000  Pb
  Pb8      1.0000 0.43006  0.49970  0.92976  Biso   1.000  Pb
  Nb1      1.0000 0.75000  0.49821  0.74821  Biso   1.000  Nb
  Nb2      1.0000 0.25000  0.50179  0.25179  Biso   1.000  Nb
  Nb3      1.0000 0.25000  0.99821  0.74821  Biso   1.000  Nb
  Nb4      1.0000 0.75000  0.00179  0.25179  Biso   1.000  Nb
  Ta1      1.0000 0.89358  0.50526  0.89884  Biso   1.000  Ta
  Ta2      1.0000 0.39358  0.49474  0.38832  Biso   1.000  Ta
  Ta3      1.0000 0.39358  0.00526  0.89884  Biso   1.000  Ta
  Ta4      1.0000 0.89358  0.99474  0.38832  Biso   1.000  Ta
  Ta5      1.0000 0.60642  0.50526  0.61168  Biso   1.000  Ta
  Ta6      1.0000 0.10642  0.49474  0.10116  Biso   1.000  Ta
  Ta7      1.0000 0.10642  0.00526  0.61168  Biso   1.000  Ta
  Ta8      1.0000 0.60642  0.99474  0.10116  Biso   1.000  Ta
  O1       1.0000 0.00000  0.75074  0.75074  Biso   1.000  O
  O2       1.0000 0.50000  0.74926  0.24926  Biso   1.000  O
  O3       1.0000 0.50000  0.25074  0.75074  Biso   1.000  O
  O4       1.0000 0.00000  0.24926  0.24926  Biso   1.000  O
  O5       1.0000 0.75000  0.75000  0.00000  Biso   1.000  O
  O6       1.0000 0.25000  0.75000  0.50000  Biso   1.000  O
  O7       1.0000 0.25000  0.25000  0.00000  Biso   1.000  O
  O8       1.0000 0.75000  0.25000  0.50000  Biso   1.000  O
  O9       1.0000 0.81512  0.49400  0.80912  Biso   1.000  O
  O10      1.0000 0.31512  0.50600  0.32112  Biso   1.000  O
  O11      1.0000 0.31512  0.99400  0.80912  Biso   1.000  O
  O12      1.0000 0.81512  0.00600  0.32112  Biso   1.000  O
  O13      1.0000 0.68488  0.49400  0.67888  Biso   1.000  O
  O14      1.0000 0.18488  0.50600  0.19088  Biso   1.000  O
  O15      1.0000 0.18488  0.99400  0.67888  Biso   1.000  O
  O16      1.0000 0.68488  0.00600  0.19088  Biso   1.000  O
  O17      1.0000 0.13118  0.75176  0.88294  Biso   1.000  O
  O18      1.0000 0.63118  0.74824  0.37942  Biso   1.000  O
  O19      1.0000 0.63118  0.25097  0.88215  Biso   1.000  O
  O20      1.0000 0.13118  0.24903  0.38021  Biso   1.000  O
  O21      1.0000 0.36882  0.25176  0.62058  Biso   1.000  O
  O22      1.0000 0.86882  0.24824  0.11706  Biso   1.000  O
  O23      1.0000 0.86882  0.75097  0.61979  Biso   1.000  O
  O24      1.0000 0.36882  0.74903  0.11785  Biso   1.000  O
  O25      1.0000 0.63132  0.75000  0.88132  Biso   1.000  O
  O26      1.0000 0.10632  0.75000  0.35632  Biso   1.000  O
  O27      1.0000 0.13132  0.25000  0.88132  Biso   1.000  O
  O28      1.0000 0.60632  0.25000  0.35632  Biso   1.000  O
  O29      1.0000 0.86868  0.75000  0.11868  Biso   1.000  O
  O30      1.0000 0.39368  0.75000  0.64368  Biso   1.000  O
  O31      1.0000 0.36868  0.25000  0.11868  Biso   1.000  O
  O32      1.0000 0.89368  0.25000  0.64368  Biso   1.000  O
  O33      1.0000 0.95187  0.52279  0.97466  Biso   1.000  O
  O34      1.0000 0.45187  0.47721  0.42908  Biso   1.000  O
  O35      1.0000 0.45187  0.02279  0.97466  Biso   1.000  O
  O36      1.0000 0.95187  0.97721  0.42908  Biso   1.000  O
  O37      1.0000 0.54813  0.52279  0.57092  Biso   1.000  O
  O38      1.0000 0.04813  0.47721  0.02534  Biso   1.000  O
  O39      1.0000 0.04813  0.02279  0.57092  Biso   1.000  O
  O40      1.0000 0.54813  0.97721  0.02534  Biso   1.000  O
