data_image0
_cell_length_a       7.8528
_cell_length_b       7.8528
_cell_length_c       30.3622
_cell_angle_alpha    90
_cell_angle_beta     90
_cell_angle_gamma    90

_symmetry_space_group_name_H-M    "P 1"
_symmetry_int_tables_number       1

loop_
  _symmetry_equiv_pos_as_xyz
  'x, y, z'

loop_
  _atom_site_label
  _atom_site_occupancy
  _atom_site_fract_x
  _atom_site_fract_y
  _atom_site_fract_z
  _atom_site_thermal_displace_type
  _atom_site_B_iso_or_equiv
  _atom_site_type_symbol
  K1       1.0000 0.05387  0.58754  0.75000  Biso   1.000  K
  K2       1.0000 0.94613  0.41246  0.25000  Biso   1.000  K
  K3       1.0000 0.58754  0.41246  0.75000  Biso   1.000  K
  K4       1.0000 0.41246  0.58754  0.25000  Biso   1.000  K
  K5       1.0000 0.94613  0.05387  0.75000  Biso   1.000  K
  K6       1.0000 0.05387  0.94613  0.25000  Biso   1.000  K
  K7       1.0000 0.41246  0.94613  0.75000  Biso   1.000  K
  K8       1.0000 0.58754  0.05387  0.25000  Biso   1.000  K
  Pb1      1.0000 0.01434  0.48625  0.92663  Biso   1.000  Pb
  Pb2      1.0000 0.98566  0.51375  0.42663  Biso   1.000  Pb
  Pb3      1.0000 0.48625  0.51375  0.92663  Biso   1.000  Pb
  Pb4      1.0000 0.51375  0.48625  0.42663  Biso   1.000  Pb
  Pb5      1.0000 0.98566  0.01434  0.92663  Biso   1.000  Pb
  Pb6      1.0000 0.01434  0.98566  0.42663  Biso   1.000  Pb
  Pb7      1.0000 0.51375  0.98566  0.92663  Biso   1.000  Pb
  Pb8      1.0000 0.48625  0.01434  0.42663  Biso   1.000  Pb
  Pb9      1.0000 0.51375  0.48625  0.07337  Biso   1.000  Pb
  Pb10     1.0000 0.48625  0.51375  0.57337  Biso   1.000  Pb
  Pb11     1.0000 0.98566  0.51375  0.07337  Biso   1.000  Pb
  Pb12     1.0000 0.01434  0.48625  0.57337  Biso   1.000  Pb
  Pb13     1.0000 0.48625  0.01434  0.07337  Biso   1.000  Pb
  Pb14     1.0000 0.51375  0.98566  0.57337  Biso   1.000  Pb
  Pb15     1.0000 0.01434  0.98566  0.07337  Biso   1.000  Pb
  Pb16     1.0000 0.98566  0.01434  0.57337  Biso   1.000  Pb
  Nb1      1.0000 0.75000  0.25000  0.00000  Biso   1.000  Nb
  Nb2      1.0000 0.75000  0.25000  0.50000  Biso   1.000  Nb
  Nb3      1.0000 0.25000  0.25000  0.00000  Biso   1.000  Nb
  Nb4      1.0000 0.25000  0.25000  0.50000  Biso   1.000  Nb
  Nb5      1.0000 0.75000  0.75000  0.00000  Biso   1.000  Nb
  Nb6      1.0000 0.75000  0.75000  0.50000  Biso   1.000  Nb
  Nb7      1.0000 0.25000  0.75000  0.00000  Biso   1.000  Nb
  Nb8      1.0000 0.25000  0.75000  0.50000  Biso   1.000  Nb
  Ta1      1.0000 0.74677  0.25323  0.85642  Biso   1.000  Ta
  Ta2      1.0000 0.75323  0.24677  0.35642  Biso   1.000  Ta
  Ta3      1.0000 0.25323  0.24677  0.85642  Biso   1.000  Ta
  Ta4      1.0000 0.24677  0.25323  0.35642  Biso   1.000  Ta
  Ta5      1.0000 0.75323  0.74677  0.85642  Biso   1.000  Ta
  Ta6      1.0000 0.74677  0.75323  0.35642  Biso   1.000  Ta
  Ta7      1.0000 0.24677  0.75323  0.85642  Biso   1.000  Ta
  Ta8      1.0000 0.25323  0.74677  0.35642  Biso   1.000  Ta
  Ta9      1.0000 0.75323  0.24677  0.14358  Biso   1.000  Ta
  Ta10     1.0000 0.74677  0.25323  0.64358  Biso   1.000  Ta
  Ta11     1.0000 0.24677  0.25323  0.14358  Biso   1.000  Ta
  Ta12     1.0000 0.25323  0.24677  0.64358  Biso   1.000  Ta
  Ta13     1.0000 0.74677  0.75323  0.14358  Biso   1.000  Ta
  Ta14     1.0000 0.75323  0.74677  0.64358  Biso   1.000  Ta
  Ta15     1.0000 0.25323  0.74677  0.14358  Biso   1.000  Ta
  Ta16     1.0000 0.24677  0.75323  0.64358  Biso   1.000  Ta
  O1       1.0000 0.00000  0.25000  0.02055  Biso   1.000  O
  O2       1.0000 0.00000  0.25000  0.47945  Biso   1.000  O
  O3       1.0000 0.50000  0.25000  0.97945  Biso   1.000  O
  O4       1.0000 0.50000  0.25000  0.52055  Biso   1.000  O
  O5       1.0000 0.00000  0.75000  0.97945  Biso   1.000  O
  O6       1.0000 0.00000  0.75000  0.52055  Biso   1.000  O
  O7       1.0000 0.50000  0.75000  0.02055  Biso   1.000  O
  O8       1.0000 0.50000  0.75000  0.47945  Biso   1.000  O
  O9       1.0000 0.75000  0.00000  0.02055  Biso   1.000  O
  O10      1.0000 0.75000  0.00000  0.47945  Biso   1.000  O
  O11      1.0000 0.25000  0.00000  0.97945  Biso   1.000  O
  O12      1.0000 0.25000  0.00000  0.52055  Biso   1.000  O
  O13      1.0000 0.75000  0.50000  0.97945  Biso   1.000  O
  O14      1.0000 0.75000  0.50000  0.52055  Biso   1.000  O
  O15      1.0000 0.25000  0.50000  0.02055  Biso   1.000  O
  O16      1.0000 0.25000  0.50000  0.47945  Biso   1.000  O
  O17      1.0000 0.76959  0.23041  0.93488  Biso   1.000  O
  O18      1.0000 0.73041  0.26959  0.43488  Biso   1.000  O
  O19      1.0000 0.23041  0.26959  0.93488  Biso   1.000  O
  O20      1.0000 0.26959  0.23041  0.43488  Biso   1.000  O
  O21      1.0000 0.73041  0.76959  0.93488  Biso   1.000  O
  O22      1.0000 0.76959  0.73041  0.43488  Biso   1.000  O
  O23      1.0000 0.26959  0.73041  0.93488  Biso   1.000  O
  O24      1.0000 0.23041  0.76959  0.43488  Biso   1.000  O
  O25      1.0000 0.73041  0.26959  0.06512  Biso   1.000  O
  O26      1.0000 0.76959  0.23041  0.56512  Biso   1.000  O
  O27      1.0000 0.26959  0.23041  0.06512  Biso   1.000  O
  O28      1.0000 0.23041  0.26959  0.56512  Biso   1.000  O
  O29      1.0000 0.76959  0.73041  0.06512  Biso   1.000  O
  O30      1.0000 0.73041  0.76959  0.56512  Biso   1.000  O
  O31      1.0000 0.23041  0.76959  0.06512  Biso   1.000  O
  O32      1.0000 0.26959  0.73041  0.56512  Biso   1.000  O
  O33      1.0000 0.00000  0.24961  0.85689  Biso   1.000  O
  O34      1.0000 0.00000  0.25039  0.38075  Biso   1.000  O
  O35      1.0000 0.50000  0.25039  0.88075  Biso   1.000  O
  O36      1.0000 0.50000  0.24961  0.35689  Biso   1.000  O
  O37      1.0000 0.00000  0.74961  0.88075  Biso   1.000  O
  O38      1.0000 0.00000  0.75039  0.35689  Biso   1.000  O
  O39      1.0000 0.50000  0.75039  0.85689  Biso   1.000  O
  O40      1.0000 0.50000  0.74961  0.38075  Biso   1.000  O
  O41      1.0000 0.50000  0.24961  0.14311  Biso   1.000  O
  O42      1.0000 0.50000  0.25039  0.61925  Biso   1.000  O
  O43      1.0000 0.00000  0.25039  0.11925  Biso   1.000  O
  O44      1.0000 0.00000  0.24961  0.64311  Biso   1.000  O
  O45      1.0000 0.50000  0.74961  0.11925  Biso   1.000  O
  O46      1.0000 0.50000  0.75039  0.64311  Biso   1.000  O
  O47      1.0000 0.00000  0.75039  0.14311  Biso   1.000  O
  O48      1.0000 0.00000  0.74961  0.61925  Biso   1.000  O
  O49      1.0000 0.74961  0.00000  0.11925  Biso   1.000  O
  O50      1.0000 0.75039  0.00000  0.64311  Biso   1.000  O
  O51      1.0000 0.24961  0.00000  0.14311  Biso   1.000  O
  O52      1.0000 0.25039  0.00000  0.61925  Biso   1.000  O
  O53      1.0000 0.75039  0.50000  0.14311  Biso   1.000  O
  O54      1.0000 0.74961  0.50000  0.61925  Biso   1.000  O
  O55      1.0000 0.25039  0.50000  0.11925  Biso   1.000  O
  O56      1.0000 0.24961  0.50000  0.64311  Biso   1.000  O
  O57      1.0000 0.75039  0.00000  0.85689  Biso   1.000  O
  O58      1.0000 0.74961  0.00000  0.38075  Biso   1.000  O
  O59      1.0000 0.25039  0.00000  0.88075  Biso   1.000  O
  O60      1.0000 0.24961  0.00000  0.35689  Biso   1.000  O
  O61      1.0000 0.74961  0.50000  0.88075  Biso   1.000  O
  O62      1.0000 0.75039  0.50000  0.35689  Biso   1.000  O
  O63      1.0000 0.24961  0.50000  0.85689  Biso   1.000  O
  O64      1.0000 0.25039  0.50000  0.38075  Biso   1.000  O
  O65      1.0000 0.73723  0.26277  0.79813  Biso   1.000  O
  O66      1.0000 0.76277  0.23723  0.29813  Biso   1.000  O
  O67      1.0000 0.26277  0.23723  0.79813  Biso   1.000  O
  O68      1.0000 0.23723  0.26277  0.29813  Biso   1.000  O
  O69      1.0000 0.76277  0.73723  0.79813  Biso   1.000  O
  O70      1.0000 0.73723  0.76277  0.29813  Biso   1.000  O
  O71      1.0000 0.23723  0.76277  0.79813  Biso   1.000  O
  O72      1.0000 0.26277  0.73723  0.29813  Biso   1.000  O
  O73      1.0000 0.76277  0.23723  0.20187  Biso   1.000  O
  O74      1.0000 0.73723  0.26277  0.70187  Biso   1.000  O
  O75      1.0000 0.23723  0.26277  0.20187  Biso   1.000  O
  O76      1.0000 0.26277  0.23723  0.70187  Biso   1.000  O
  O77      1.0000 0.73723  0.76277  0.20187  Biso   1.000  O
  O78      1.0000 0.76277  0.73723  0.70187  Biso   1.000  O
  O79      1.0000 0.26277  0.73723  0.20187  Biso   1.000  O
  O80      1.0000 0.23723  0.76277  0.70187  Biso   1.000  O
