data_image0
_cell_length_a       16.1647
_cell_length_b       16.1647
_cell_length_c       16.1647
_cell_angle_alpha    40.1819
_cell_angle_beta     151.885
_cell_angle_gamma    151.885

_symmetry_space_group_name_H-M    "P 1"
_symmetry_int_tables_number       1

loop_
  _symmetry_equiv_pos_as_xyz
  'x, y, z'

loop_
  _atom_site_label
  _atom_site_occupancy
  _atom_site_fract_x
  _atom_site_fract_y
  _atom_site_fract_z
  _atom_site_thermal_displace_type
  _atom_site_B_iso_or_equiv
  _atom_site_type_symbol
  K1       1.0000 0.35859  0.42930  0.42930  Biso   1.000  K
  K2       1.0000 0.64141  0.07070  0.07070  Biso   1.000  K
  K3       1.0000 0.00000  0.57070  0.92930  Biso   1.000  K
  K4       1.0000 0.00000  0.92930  0.57070  Biso   1.000  K
  Pb1      1.0000 0.51669  0.69362  0.67633  Biso   1.000  Pb
  Pb2      1.0000 0.51788  0.19421  0.17693  Biso   1.000  Pb
  Pb3      1.0000 0.01729  0.69421  0.17633  Biso   1.000  Pb
  Pb4      1.0000 0.01729  0.19362  0.67693  Biso   1.000  Pb
  Pb5      1.0000 0.01729  0.84036  0.32367  Biso   1.000  Pb
  Pb6      1.0000 0.01729  0.34095  0.82307  Biso   1.000  Pb
  Pb7      1.0000 0.51788  0.84095  0.82367  Biso   1.000  Pb
  Pb8      1.0000 0.51669  0.34036  0.32307  Biso   1.000  Pb
  Nb1      1.0000 0.01680  0.01680  0.00000  Biso   1.000  Nb
  Nb2      1.0000 0.01680  0.51680  0.50000  Biso   1.000  Nb
  Nb3      1.0000 0.51680  0.01680  0.50000  Biso   1.000  Nb
  Nb4      1.0000 0.51680  0.51680  0.00000  Biso   1.000  Nb
  Ta1      1.0000 0.98778  0.84420  0.85642  Biso   1.000  Ta
  Ta2      1.0000 0.98778  0.34420  0.35642  Biso   1.000  Ta
  Ta3      1.0000 0.48778  0.84420  0.35642  Biso   1.000  Ta
  Ta4      1.0000 0.48778  0.34420  0.85642  Biso   1.000  Ta
  Ta5      1.0000 0.98778  0.13136  0.14358  Biso   1.000  Ta
  Ta6      1.0000 0.98778  0.63136  0.64358  Biso   1.000  Ta
  Ta7      1.0000 0.48778  0.13136  0.64358  Biso   1.000  Ta
  Ta8      1.0000 0.48778  0.63136  0.14358  Biso   1.000  Ta
  O1       1.0000 0.70815  0.95815  0.75000  Biso   1.000  O
  O2       1.0000 0.70815  0.45815  0.25000  Biso   1.000  O
  O3       1.0000 0.20815  0.95815  0.25000  Biso   1.000  O
  O4       1.0000 0.20815  0.45815  0.75000  Biso   1.000  O
  O5       1.0000 0.23021  0.23021  0.00000  Biso   1.000  O
  O6       1.0000 0.23021  0.73021  0.50000  Biso   1.000  O
  O7       1.0000 0.73021  0.23021  0.50000  Biso   1.000  O
  O8       1.0000 0.73021  0.73021  0.00000  Biso   1.000  O
  O9       1.0000 0.97692  0.91180  0.93488  Biso   1.000  O
  O10      1.0000 0.97692  0.41180  0.43488  Biso   1.000  O
  O11      1.0000 0.47692  0.91180  0.43488  Biso   1.000  O
  O12      1.0000 0.47692  0.41180  0.93488  Biso   1.000  O
  O13      1.0000 0.97692  0.04204  0.06512  Biso   1.000  O
  O14      1.0000 0.97692  0.54204  0.56512  Biso   1.000  O
  O15      1.0000 0.47692  0.04204  0.56512  Biso   1.000  O
  O16      1.0000 0.47692  0.54204  0.06512  Biso   1.000  O
  O17      1.0000 0.73784  0.85666  0.61882  Biso   1.000  O
  O18      1.0000 0.73705  0.35587  0.11882  Biso   1.000  O
  O19      1.0000 0.23705  0.85587  0.11882  Biso   1.000  O
  O20      1.0000 0.23784  0.35666  0.61882  Biso   1.000  O
  O21      1.0000 0.23784  0.11902  0.38118  Biso   1.000  O
  O22      1.0000 0.23705  0.61823  0.88118  Biso   1.000  O
  O23      1.0000 0.73705  0.11823  0.88118  Biso   1.000  O
  O24      1.0000 0.73784  0.61902  0.38118  Biso   1.000  O
  O25      1.0000 0.24066  0.37145  0.13157  Biso   1.000  O
  O26      1.0000 0.23988  0.87145  0.63079  Biso   1.000  O
  O27      1.0000 0.74066  0.37145  0.63157  Biso   1.000  O
  O28      1.0000 0.73988  0.87145  0.13079  Biso   1.000  O
  O29      1.0000 0.23988  0.10909  0.86843  Biso   1.000  O
  O30      1.0000 0.24066  0.60909  0.36921  Biso   1.000  O
  O31      1.0000 0.73988  0.10909  0.36843  Biso   1.000  O
  O32      1.0000 0.74066  0.60909  0.86921  Biso   1.000  O
  O33      1.0000 0.99260  0.79073  0.79813  Biso   1.000  O
  O34      1.0000 0.99260  0.29073  0.29813  Biso   1.000  O
  O35      1.0000 0.49260  0.79073  0.29813  Biso   1.000  O
  O36      1.0000 0.49260  0.29073  0.79813  Biso   1.000  O
  O37      1.0000 0.99260  0.19447  0.20187  Biso   1.000  O
  O38      1.0000 0.99260  0.69447  0.70187  Biso   1.000  O
  O39      1.0000 0.49260  0.19447  0.70187  Biso   1.000  O
  O40      1.0000 0.49260  0.69447  0.20187  Biso   1.000  O
