data_image0
_cell_length_a       3.9264
_cell_length_b       15.6806
_cell_length_c       15.6806
_cell_angle_alpha    150.998
_cell_angle_beta     90
_cell_angle_gamma    90

_symmetry_space_group_name_H-M    "P 1"
_symmetry_int_tables_number       1

loop_
  _symmetry_equiv_pos_as_xyz
  'x, y, z'

loop_
  _atom_site_label
  _atom_site_occupancy
  _atom_site_fract_x
  _atom_site_fract_y
  _atom_site_fract_z
  _atom_site_thermal_displace_type
  _atom_site_B_iso_or_equiv
  _atom_site_type_symbol
  K1       1.0000 0.35859  0.50000  0.00000  Biso   1.000  K
  K2       1.0000 0.64141  0.00000  0.50000  Biso   1.000  K
  Pb1      1.0000 0.49940  0.30608  0.15934  Biso   1.000  Pb
  Pb2      1.0000 0.50060  0.80608  0.65934  Biso   1.000  Pb
  Pb3      1.0000 0.49940  0.65934  0.80608  Biso   1.000  Pb
  Pb4      1.0000 0.50060  0.15934  0.30608  Biso   1.000  Pb
  Nb1      1.0000 0.00000  0.98320  0.98320  Biso   1.000  Nb
  Nb2      1.0000 0.00000  0.48320  0.48320  Biso   1.000  Nb
  Ta1      1.0000 1.00000  0.15580  0.86864  Biso   1.000  Ta
  Ta2      1.0000 0.00000  0.65580  0.36864  Biso   1.000  Ta
  Ta3      1.0000 0.00000  0.86864  0.15580  Biso   1.000  Ta
  Ta4      1.0000 1.00000  0.36864  0.65580  Biso   1.000  Ta
  O1       1.0000 0.00000  0.26979  0.26979  Biso   1.000  O
  O2       1.0000 0.00000  0.76979  0.76979  Biso   1.000  O
  O3       1.0000 0.50000  0.04185  0.04185  Biso   1.000  O
  O4       1.0000 0.50000  0.54185  0.54185  Biso   1.000  O
  O5       1.0000 1.00000  0.08820  0.95796  Biso   1.000  O
  O6       1.0000 0.00000  0.58820  0.45796  Biso   1.000  O
  O7       1.0000 0.00000  0.95796  0.08820  Biso   1.000  O
  O8       1.0000 1.00000  0.45796  0.58820  Biso   1.000  O
  O9       1.0000 0.00079  0.39091  0.12855  Biso   1.000  O
  O10      1.0000 0.99921  0.89091  0.62855  Biso   1.000  O
  O11      1.0000 0.00079  0.62855  0.89091  Biso   1.000  O
  O12      1.0000 0.99921  0.12855  0.39091  Biso   1.000  O
  O13      1.0000 0.50000  0.88137  0.14373  Biso   1.000  O
  O14      1.0000 0.50000  0.38137  0.64373  Biso   1.000  O
  O15      1.0000 0.50000  0.14373  0.88137  Biso   1.000  O
  O16      1.0000 0.50000  0.64373  0.38137  Biso   1.000  O
  O17      1.0000 1.00000  0.20927  0.80553  Biso   1.000  O
  O18      1.0000 0.00000  0.70927  0.30553  Biso   1.000  O
  O19      1.0000 0.00000  0.80553  0.20927  Biso   1.000  O
  O20      1.0000 1.00000  0.30553  0.70927  Biso   1.000  O
