data_image0
_cell_length_a       7.8528
_cell_length_b       7.8528
_cell_length_c       16.1647
_cell_angle_alpha    104.058
_cell_angle_beta     104.058
_cell_angle_gamma    90

_symmetry_space_group_name_H-M    "P 1"
_symmetry_int_tables_number       1

loop_
  _symmetry_equiv_pos_as_xyz
  'x, y, z'

loop_
  _atom_site_label
  _atom_site_occupancy
  _atom_site_fract_x
  _atom_site_fract_y
  _atom_site_fract_z
  _atom_site_thermal_displace_type
  _atom_site_B_iso_or_equiv
  _atom_site_type_symbol
  K1       1.0000 0.06119  0.06119  0.26378  Biso   1.000  K
  K2       1.0000 0.93881  0.93881  0.73622  Biso   1.000  K
  K3       1.0000 0.67930  0.32070  0.50000  Biso   1.000  K
  K4       1.0000 0.32070  0.67930  0.50000  Biso   1.000  K
  Pb1      1.0000 0.41947  0.41947  0.83954  Biso   1.000  Pb
  Pb2      1.0000 0.93379  0.93379  0.86698  Biso   1.000  Pb
  Pb3      1.0000 0.92633  0.42693  0.85326  Biso   1.000  Pb
  Pb4      1.0000 0.42693  0.92633  0.85326  Biso   1.000  Pb
  Pb5      1.0000 0.07367  0.57307  0.14674  Biso   1.000  Pb
  Pb6      1.0000 0.57307  0.07367  0.14674  Biso   1.000  Pb
  Pb7      1.0000 0.58053  0.58053  0.16046  Biso   1.000  Pb
  Pb8      1.0000 0.06621  0.06621  0.13302  Biso   1.000  Pb
  Nb1      1.0000 0.74821  0.74821  0.00000  Biso   1.000  Nb
  Nb2      1.0000 0.25179  0.25179  0.00000  Biso   1.000  Nb
  Nb3      1.0000 0.25179  0.74821  0.00000  Biso   1.000  Nb
  Nb4      1.0000 0.74821  0.25179  0.00000  Biso   1.000  Nb
  Ta1      1.0000 0.61168  0.61168  0.71284  Biso   1.000  Ta
  Ta2      1.0000 0.10116  0.10116  0.71284  Biso   1.000  Ta
  Ta3      1.0000 0.10116  0.61168  0.71284  Biso   1.000  Ta
  Ta4      1.0000 0.61168  0.10116  0.71284  Biso   1.000  Ta
  Ta5      1.0000 0.89884  0.89884  0.28716  Biso   1.000  Ta
  Ta6      1.0000 0.38832  0.38832  0.28716  Biso   1.000  Ta
  Ta7      1.0000 0.38832  0.89884  0.28716  Biso   1.000  Ta
  Ta8      1.0000 0.89884  0.38832  0.28716  Biso   1.000  Ta
  O1       1.0000 0.50000  0.75074  0.00000  Biso   1.000  O
  O2       1.0000 0.00000  0.24926  0.00000  Biso   1.000  O
  O3       1.0000 0.00000  0.75074  0.00000  Biso   1.000  O
  O4       1.0000 0.50000  0.24926  0.00000  Biso   1.000  O
  O5       1.0000 0.75074  0.00000  0.00000  Biso   1.000  O
  O6       1.0000 0.24926  0.50000  0.00000  Biso   1.000  O
  O7       1.0000 0.24926  0.00000  0.00000  Biso   1.000  O
  O8       1.0000 0.75074  0.50000  0.00000  Biso   1.000  O
  O9       1.0000 0.67888  0.67888  0.86976  Biso   1.000  O
  O10      1.0000 0.19088  0.19088  0.86976  Biso   1.000  O
  O11      1.0000 0.19088  0.67888  0.86976  Biso   1.000  O
  O12      1.0000 0.67888  0.19088  0.86976  Biso   1.000  O
  O13      1.0000 0.80912  0.80912  0.13024  Biso   1.000  O
  O14      1.0000 0.32112  0.32112  0.13024  Biso   1.000  O
  O15      1.0000 0.32112  0.80912  0.13024  Biso   1.000  O
  O16      1.0000 0.80912  0.32112  0.13024  Biso   1.000  O
  O17      1.0000 0.35632  0.60808  0.71264  Biso   1.000  O
  O18      1.0000 0.88132  0.12956  0.76264  Biso   1.000  O
  O19      1.0000 0.88132  0.63230  0.76264  Biso   1.000  O
  O20      1.0000 0.35632  0.10534  0.71264  Biso   1.000  O
  O21      1.0000 0.11868  0.87044  0.23736  Biso   1.000  O
  O22      1.0000 0.64368  0.39192  0.28736  Biso   1.000  O
  O23      1.0000 0.64368  0.89466  0.28736  Biso   1.000  O
  O24      1.0000 0.11868  0.36770  0.23736  Biso   1.000  O
  O25      1.0000 0.87044  0.11868  0.23736  Biso   1.000  O
  O26      1.0000 0.39192  0.64368  0.28736  Biso   1.000  O
  O27      1.0000 0.36770  0.11868  0.23736  Biso   1.000  O
  O28      1.0000 0.89466  0.64368  0.28736  Biso   1.000  O
  O29      1.0000 0.63230  0.88132  0.76264  Biso   1.000  O
  O30      1.0000 0.10534  0.35632  0.71264  Biso   1.000  O
  O31      1.0000 0.12956  0.88132  0.76264  Biso   1.000  O
  O32      1.0000 0.60808  0.35632  0.71264  Biso   1.000  O
  O33      1.0000 0.57092  0.57092  0.59626  Biso   1.000  O
  O34      1.0000 0.02534  0.02534  0.59626  Biso   1.000  O
  O35      1.0000 0.02534  0.57092  0.59626  Biso   1.000  O
  O36      1.0000 0.57092  0.02534  0.59626  Biso   1.000  O
  O37      1.0000 0.97466  0.97466  0.40374  Biso   1.000  O
  O38      1.0000 0.42908  0.42908  0.40374  Biso   1.000  O
  O39      1.0000 0.42908  0.97466  0.40374  Biso   1.000  O
  O40      1.0000 0.97466  0.42908  0.40374  Biso   1.000  O
