data_image0
_cell_length_a       15.6806
_cell_length_b       15.6806
_cell_length_c       7.8528
_cell_angle_alpha    90
_cell_angle_beta     90
_cell_angle_gamma    150.998

_symmetry_space_group_name_H-M    "P 1"
_symmetry_int_tables_number       1

loop_
  _symmetry_equiv_pos_as_xyz
  'x, y, z'

loop_
  _atom_site_label
  _atom_site_occupancy
  _atom_site_fract_x
  _atom_site_fract_y
  _atom_site_fract_z
  _atom_site_thermal_displace_type
  _atom_site_B_iso_or_equiv
  _atom_site_type_symbol
  K1       1.0000 0.73316  0.73316  0.05387  Biso   1.000  K
  K2       1.0000 0.26684  0.26684  0.94613  Biso   1.000  K
  K3       1.0000 0.76684  0.76684  0.58754  Biso   1.000  K
  K4       1.0000 0.23316  0.23316  0.41246  Biso   1.000  K
  Pb1      1.0000 0.94068  0.58742  0.01434  Biso   1.000  Pb
  Pb2      1.0000 0.41258  0.05932  0.98566  Biso   1.000  Pb
  Pb3      1.0000 0.91258  0.55932  0.48625  Biso   1.000  Pb
  Pb4      1.0000 0.44068  0.08742  0.51375  Biso   1.000  Pb
  Pb5      1.0000 0.58742  0.94068  0.01434  Biso   1.000  Pb
  Pb6      1.0000 0.05932  0.41258  0.98566  Biso   1.000  Pb
  Pb7      1.0000 0.55932  0.91258  0.48625  Biso   1.000  Pb
  Pb8      1.0000 0.08742  0.44068  0.51375  Biso   1.000  Pb
  Nb1      1.0000 0.75000  0.25000  0.75000  Biso   1.000  Nb
  Nb2      1.0000 0.25000  0.75000  0.75000  Biso   1.000  Nb
  Nb3      1.0000 0.75000  0.25000  0.25000  Biso   1.000  Nb
  Nb4      1.0000 0.25000  0.75000  0.25000  Biso   1.000  Nb
  Ta1      1.0000 0.60965  0.39681  0.75323  Biso   1.000  Ta
  Ta2      1.0000 0.10319  0.89035  0.74677  Biso   1.000  Ta
  Ta3      1.0000 0.60319  0.39035  0.24677  Biso   1.000  Ta
  Ta4      1.0000 0.10965  0.89681  0.25323  Biso   1.000  Ta
  Ta5      1.0000 0.89035  0.10319  0.74677  Biso   1.000  Ta
  Ta6      1.0000 0.39681  0.60965  0.75323  Biso   1.000  Ta
  Ta7      1.0000 0.89681  0.10965  0.25323  Biso   1.000  Ta
  Ta8      1.0000 0.39035  0.60319  0.24677  Biso   1.000  Ta
  O1       1.0000 0.97945  0.52055  0.75000  Biso   1.000  O
  O2       1.0000 0.52055  0.97945  0.75000  Biso   1.000  O
  O3       1.0000 0.02055  0.47945  0.25000  Biso   1.000  O
  O4       1.0000 0.47945  0.02055  0.25000  Biso   1.000  O
  O5       1.0000 0.77055  0.22945  0.50000  Biso   1.000  O
  O6       1.0000 0.22945  0.77055  0.50000  Biso   1.000  O
  O7       1.0000 0.72945  0.27055  0.00000  Biso   1.000  O
  O8       1.0000 0.27055  0.72945  0.00000  Biso   1.000  O
  O9       1.0000 0.66529  0.29553  0.73041  Biso   1.000  O
  O10      1.0000 0.20447  0.83471  0.76959  Biso   1.000  O
  O11      1.0000 0.70447  0.33471  0.26959  Biso   1.000  O
  O12      1.0000 0.16529  0.79553  0.23041  Biso   1.000  O
  O13      1.0000 0.83471  0.20447  0.76959  Biso   1.000  O
  O14      1.0000 0.29553  0.66529  0.73041  Biso   1.000  O
  O15      1.0000 0.79553  0.16529  0.23041  Biso   1.000  O
  O16      1.0000 0.33471  0.70447  0.26959  Biso   1.000  O
  O17      1.0000 0.88075  0.61925  0.74961  Biso   1.000  O
  O18      1.0000 0.35689  0.14311  0.75039  Biso   1.000  O
  O19      1.0000 0.85689  0.64311  0.24961  Biso   1.000  O
  O20      1.0000 0.38075  0.11925  0.25039  Biso   1.000  O
  O21      1.0000 0.61925  0.88075  0.74961  Biso   1.000  O
  O22      1.0000 0.14311  0.35689  0.75039  Biso   1.000  O
  O23      1.0000 0.64311  0.85689  0.24961  Biso   1.000  O
  O24      1.0000 0.11925  0.38075  0.25039  Biso   1.000  O
  O25      1.0000 0.86925  0.13075  0.50000  Biso   1.000  O
  O26      1.0000 0.39311  0.60689  0.50000  Biso   1.000  O
  O27      1.0000 0.89311  0.10689  0.00000  Biso   1.000  O
  O28      1.0000 0.36925  0.63075  0.00000  Biso   1.000  O
  O29      1.0000 0.60689  0.39311  0.50000  Biso   1.000  O
  O30      1.0000 0.13075  0.86925  0.50000  Biso   1.000  O
  O31      1.0000 0.63075  0.36925  0.00000  Biso   1.000  O
  O32      1.0000 0.10689  0.89311  0.00000  Biso   1.000  O
  O33      1.0000 0.56090  0.46464  0.76277  Biso   1.000  O
  O34      1.0000 0.03536  0.93910  0.73723  Biso   1.000  O
  O35      1.0000 0.53536  0.43910  0.23723  Biso   1.000  O
  O36      1.0000 0.06090  0.96464  0.26277  Biso   1.000  O
  O37      1.0000 0.93910  0.03536  0.73723  Biso   1.000  O
  O38      1.0000 0.46464  0.56090  0.76277  Biso   1.000  O
  O39      1.0000 0.96464  0.06090  0.26277  Biso   1.000  O
  O40      1.0000 0.43910  0.53536  0.23723  Biso   1.000  O
