data_image0
_cell_length_a       16.1647
_cell_length_b       16.1647
_cell_length_c       7.8528
_cell_angle_alpha    104.058
_cell_angle_beta     104.058
_cell_angle_gamma    139.818

_symmetry_space_group_name_H-M    "P 1"
_symmetry_int_tables_number       1

loop_
  _symmetry_equiv_pos_as_xyz
  'x, y, z'

loop_
  _atom_site_label
  _atom_site_occupancy
  _atom_site_fract_x
  _atom_site_fract_y
  _atom_site_fract_z
  _atom_site_thermal_displace_type
  _atom_site_B_iso_or_equiv
  _atom_site_type_symbol
  K1       1.0000 0.89166  0.89166  0.67930  Biso   1.000  K
  K2       1.0000 0.53306  0.53306  0.82070  Biso   1.000  K
  K3       1.0000 0.10834  0.10834  0.32070  Biso   1.000  K
  K4       1.0000 0.46694  0.46694  0.17930  Biso   1.000  K
  Pb1      1.0000 0.18876  0.83550  0.74970  Biso   1.000  Pb
  Pb2      1.0000 0.68935  0.33609  0.75030  Biso   1.000  Pb
  Pb3      1.0000 0.16450  0.81124  0.25030  Biso   1.000  Pb
  Pb4      1.0000 0.66391  0.31065  0.24970  Biso   1.000  Pb
  Pb5      1.0000 0.31065  0.66391  0.24970  Biso   1.000  Pb
  Pb6      1.0000 0.81124  0.16450  0.25030  Biso   1.000  Pb
  Pb7      1.0000 0.33609  0.68935  0.75030  Biso   1.000  Pb
  Pb8      1.0000 0.83550  0.18876  0.74970  Biso   1.000  Pb
  Nb1      1.0000 0.49969  0.99969  0.75000  Biso   1.000  Nb
  Nb2      1.0000 0.99969  0.49969  0.75000  Biso   1.000  Nb
  Nb3      1.0000 0.50031  0.00031  0.25000  Biso   1.000  Nb
  Nb4      1.0000 0.00031  0.50031  0.25000  Biso   1.000  Nb
  Ta1      1.0000 0.36224  0.14940  0.75000  Biso   1.000  Ta
  Ta2      1.0000 0.86224  0.64940  0.75000  Biso   1.000  Ta
  Ta3      1.0000 0.35060  0.13776  0.25000  Biso   1.000  Ta
  Ta4      1.0000 0.85060  0.63776  0.25000  Biso   1.000  Ta
  Ta5      1.0000 0.64940  0.86224  0.75000  Biso   1.000  Ta
  Ta6      1.0000 0.14940  0.36224  0.75000  Biso   1.000  Ta
  Ta7      1.0000 0.63776  0.85060  0.25000  Biso   1.000  Ta
  Ta8      1.0000 0.13776  0.35060  0.25000  Biso   1.000  Ta
  O1       1.0000 0.50000  0.00000  0.00000  Biso   1.000  O
  O2       1.0000 0.00000  0.50000  0.00000  Biso   1.000  O
  O3       1.0000 0.50000  0.00000  0.50000  Biso   1.000  O
  O4       1.0000 0.00000  0.50000  0.50000  Biso   1.000  O
  O5       1.0000 0.75000  0.25000  0.00000  Biso   1.000  O
  O6       1.0000 0.25000  0.75000  0.00000  Biso   1.000  O
  O7       1.0000 0.75000  0.25000  0.50000  Biso   1.000  O
  O8       1.0000 0.25000  0.75000  0.50000  Biso   1.000  O
  O9       1.0000 0.42911  0.05935  0.75000  Biso   1.000  O
  O10      1.0000 0.92911  0.55935  0.75000  Biso   1.000  O
  O11      1.0000 0.44065  0.07089  0.25000  Biso   1.000  O
  O12      1.0000 0.94065  0.57089  0.25000  Biso   1.000  O
  O13      1.0000 0.55935  0.92911  0.75000  Biso   1.000  O
  O14      1.0000 0.05935  0.42911  0.75000  Biso   1.000  O
  O15      1.0000 0.57089  0.94065  0.25000  Biso   1.000  O
  O16      1.0000 0.07089  0.44065  0.25000  Biso   1.000  O
  O17      1.0000 0.36052  0.14026  0.00039  Biso   1.000  O
  O18      1.0000 0.85974  0.63948  0.99961  Biso   1.000  O
  O19      1.0000 0.37712  0.12210  0.49961  Biso   1.000  O
  O20      1.0000 0.87790  0.62288  0.50039  Biso   1.000  O
  O21      1.0000 0.62288  0.87790  0.50039  Biso   1.000  O
  O22      1.0000 0.12210  0.37712  0.49961  Biso   1.000  O
  O23      1.0000 0.63948  0.85974  0.99961  Biso   1.000  O
  O24      1.0000 0.14026  0.36052  0.00039  Biso   1.000  O
  O25      1.0000 0.87249  0.12751  0.00000  Biso   1.000  O
  O26      1.0000 0.37249  0.62751  0.00000  Biso   1.000  O
  O27      1.0000 0.88987  0.11013  0.50000  Biso   1.000  O
  O28      1.0000 0.38987  0.61013  0.50000  Biso   1.000  O
  O29      1.0000 0.62751  0.37249  0.00000  Biso   1.000  O
  O30      1.0000 0.12751  0.87249  0.00000  Biso   1.000  O
  O31      1.0000 0.61013  0.38987  0.50000  Biso   1.000  O
  O32      1.0000 0.11013  0.88987  0.50000  Biso   1.000  O
  O33      1.0000 0.31377  0.21751  0.75000  Biso   1.000  O
  O34      1.0000 0.81377  0.71751  0.75000  Biso   1.000  O
  O35      1.0000 0.28249  0.18623  0.25000  Biso   1.000  O
  O36      1.0000 0.78249  0.68623  0.25000  Biso   1.000  O
  O37      1.0000 0.71751  0.81377  0.75000  Biso   1.000  O
  O38      1.0000 0.21751  0.31377  0.75000  Biso   1.000  O
  O39      1.0000 0.68623  0.78249  0.25000  Biso   1.000  O
  O40      1.0000 0.18623  0.28249  0.25000  Biso   1.000  O
