data_image0
_cell_length_a       16.1647
_cell_length_b       16.1647
_cell_length_c       16.1647
_cell_angle_alpha    40.1819
_cell_angle_beta     151.885
_cell_angle_gamma    151.885

_symmetry_space_group_name_H-M    "P 1"
_symmetry_int_tables_number       1

loop_
  _symmetry_equiv_pos_as_xyz
  'x, y, z'

loop_
  _atom_site_label
  _atom_site_occupancy
  _atom_site_fract_x
  _atom_site_fract_y
  _atom_site_fract_z
  _atom_site_thermal_displace_type
  _atom_site_B_iso_or_equiv
  _atom_site_type_symbol
  K1       1.0000 0.35859  0.42930  0.42930  Biso   1.000  K
  K2       1.0000 0.64141  0.07070  0.07070  Biso   1.000  K
  K3       1.0000 0.00000  0.57070  0.92930  Biso   1.000  K
  K4       1.0000 0.00000  0.92930  0.57070  Biso   1.000  K
  Pb1      1.0000 0.49940  0.68213  0.68213  Biso   1.000  Pb
  Pb2      1.0000 0.50060  0.17113  0.17113  Biso   1.000  Pb
  Pb3      1.0000 0.00000  0.67113  0.17054  Biso   1.000  Pb
  Pb4      1.0000 0.00000  0.18213  0.68272  Biso   1.000  Pb
  Pb5      1.0000 0.00000  0.81728  0.31787  Biso   1.000  Pb
  Pb6      1.0000 0.00000  0.32946  0.82887  Biso   1.000  Pb
  Pb7      1.0000 0.50060  0.82946  0.82946  Biso   1.000  Pb
  Pb8      1.0000 0.49940  0.31728  0.31728  Biso   1.000  Pb
  Nb1      1.0000 0.00000  0.00000  0.00000  Biso   1.000  Nb
  Nb2      1.0000 0.00000  0.50000  0.50000  Biso   1.000  Nb
  Nb3      1.0000 0.50000  0.00000  0.50000  Biso   1.000  Nb
  Nb4      1.0000 0.50000  0.50000  0.00000  Biso   1.000  Nb
  Ta1      1.0000 0.99887  0.85642  0.85529  Biso   1.000  Ta
  Ta2      1.0000 0.00113  0.35642  0.35755  Biso   1.000  Ta
  Ta3      1.0000 0.50113  0.85642  0.35755  Biso   1.000  Ta
  Ta4      1.0000 0.49887  0.35642  0.85529  Biso   1.000  Ta
  Ta5      1.0000 0.00113  0.14358  0.14471  Biso   1.000  Ta
  Ta6      1.0000 0.99887  0.64358  0.64245  Biso   1.000  Ta
  Ta7      1.0000 0.49887  0.14358  0.64245  Biso   1.000  Ta
  Ta8      1.0000 0.50113  0.64358  0.14471  Biso   1.000  Ta
  O1       1.0000 0.75000  0.95696  0.70696  Biso   1.000  O
  O2       1.0000 0.75000  0.54304  0.29304  Biso   1.000  O
  O3       1.0000 0.25000  0.04304  0.29304  Biso   1.000  O
  O4       1.0000 0.25000  0.45696  0.70696  Biso   1.000  O
  O5       1.0000 0.25000  0.25000  0.00000  Biso   1.000  O
  O6       1.0000 0.25000  0.75000  0.50000  Biso   1.000  O
  O7       1.0000 0.75000  0.25000  0.50000  Biso   1.000  O
  O8       1.0000 0.75000  0.75000  0.00000  Biso   1.000  O
  O9       1.0000 0.03359  0.93488  0.96847  Biso   1.000  O
  O10      1.0000 0.96641  0.43488  0.40129  Biso   1.000  O
  O11      1.0000 0.46641  0.93488  0.40129  Biso   1.000  O
  O12      1.0000 0.53359  0.43488  0.96847  Biso   1.000  O
  O13      1.0000 0.96641  0.06512  0.03153  Biso   1.000  O
  O14      1.0000 0.03359  0.56512  0.59871  Biso   1.000  O
  O15      1.0000 0.53359  0.06512  0.59871  Biso   1.000  O
  O16      1.0000 0.46641  0.56512  0.03153  Biso   1.000  O
  O17      1.0000 0.75039  0.88777  0.63738  Biso   1.000  O
  O18      1.0000 0.74961  0.34987  0.10026  Biso   1.000  O
  O19      1.0000 0.24961  0.84987  0.10026  Biso   1.000  O
  O20      1.0000 0.25039  0.38777  0.63738  Biso   1.000  O
  O21      1.0000 0.25039  0.11302  0.36262  Biso   1.000  O
  O22      1.0000 0.24961  0.64934  0.89974  Biso   1.000  O
  O23      1.0000 0.74961  0.14934  0.89974  Biso   1.000  O
  O24      1.0000 0.75039  0.61302  0.36262  Biso   1.000  O
  O25      1.0000 0.25450  0.38118  0.13568  Biso   1.000  O
  O26      1.0000 0.24550  0.88118  0.62668  Biso   1.000  O
  O27      1.0000 0.74629  0.38118  0.62747  Biso   1.000  O
  O28      1.0000 0.75371  0.88118  0.13489  Biso   1.000  O
  O29      1.0000 0.24550  0.11882  0.86432  Biso   1.000  O
  O30      1.0000 0.25450  0.61882  0.37332  Biso   1.000  O
  O31      1.0000 0.75371  0.11882  0.37253  Biso   1.000  O
  O32      1.0000 0.74629  0.61882  0.86511  Biso   1.000  O
  O33      1.0000 0.99300  0.79813  0.79113  Biso   1.000  O
  O34      1.0000 0.00700  0.29813  0.30513  Biso   1.000  O
  O35      1.0000 0.50700  0.79813  0.30513  Biso   1.000  O
  O36      1.0000 0.49300  0.29813  0.79113  Biso   1.000  O
  O37      1.0000 0.00700  0.20187  0.20887  Biso   1.000  O
  O38      1.0000 0.99300  0.70187  0.69487  Biso   1.000  O
  O39      1.0000 0.49300  0.20187  0.69487  Biso   1.000  O
  O40      1.0000 0.50700  0.70187  0.20887  Biso   1.000  O
