data_image0
_cell_length_a       16.1647
_cell_length_b       16.1647
_cell_length_c       16.1647
_cell_angle_alpha    151.885
_cell_angle_beta     40.1819
_cell_angle_gamma    151.885

_symmetry_space_group_name_H-M    "P 1"
_symmetry_int_tables_number       1

loop_
  _symmetry_equiv_pos_as_xyz
  'x, y, z'

loop_
  _atom_site_label
  _atom_site_occupancy
  _atom_site_fract_x
  _atom_site_fract_y
  _atom_site_fract_z
  _atom_site_thermal_displace_type
  _atom_site_B_iso_or_equiv
  _atom_site_type_symbol
  K1       1.0000 0.92930  0.42930  0.50000  Biso   1.000  K
  K2       1.0000 0.57070  0.57070  0.00000  Biso   1.000  K
  K3       1.0000 0.07070  0.07070  0.00000  Biso   1.000  K
  K4       1.0000 0.42930  0.92930  0.50000  Biso   1.000  K
  Pb1      1.0000 0.81148  0.49970  0.31178  Biso   1.000  Pb
  Pb2      1.0000 0.33526  0.50030  0.83496  Biso   1.000  Pb
  Pb3      1.0000 0.82367  0.00030  0.82337  Biso   1.000  Pb
  Pb4      1.0000 0.32307  0.99970  0.32337  Biso   1.000  Pb
  Pb5      1.0000 0.67633  0.99970  0.67663  Biso   1.000  Pb
  Pb6      1.0000 0.17693  0.00030  0.17663  Biso   1.000  Pb
  Pb7      1.0000 0.66534  0.50030  0.16504  Biso   1.000  Pb
  Pb8      1.0000 0.18792  0.49970  0.68822  Biso   1.000  Pb
  Nb1      1.0000 0.00000  0.00000  0.50000  Biso   1.000  Nb
  Nb2      1.0000 0.50000  0.00000  0.00000  Biso   1.000  Nb
  Nb3      1.0000 1.00000  0.50000  0.00000  Biso   1.000  Nb
  Nb4      1.0000 0.50000  0.50000  0.50000  Biso   1.000  Nb
  Ta1      1.0000 0.14245  0.99775  0.64245  Biso   1.000  Ta
  Ta2      1.0000 0.64471  0.00225  0.14471  Biso   1.000  Ta
  Ta3      1.0000 0.14245  0.50000  0.14471  Biso   1.000  Ta
  Ta4      1.0000 0.64471  0.50000  0.64245  Biso   1.000  Ta
  Ta5      1.0000 0.85755  0.00225  0.35755  Biso   1.000  Ta
  Ta6      1.0000 0.35529  0.99775  0.85529  Biso   1.000  Ta
  Ta7      1.0000 0.85755  0.50000  0.85529  Biso   1.000  Ta
  Ta8      1.0000 0.35529  0.50000  0.35755  Biso   1.000  Ta
  O1       1.0000 0.04304  0.75000  0.29304  Biso   1.000  O
  O2       1.0000 0.45696  0.75000  0.70696  Biso   1.000  O
  O3       1.0000 0.95696  0.25000  0.70696  Biso   1.000  O
  O4       1.0000 0.54304  0.25000  0.29304  Biso   1.000  O
  O5       1.0000 0.20696  0.25000  0.45696  Biso   1.000  O
  O6       1.0000 0.79304  0.25000  0.04304  Biso   1.000  O
  O7       1.0000 0.20696  0.75000  0.95696  Biso   1.000  O
  O8       1.0000 0.79304  0.75000  0.54304  Biso   1.000  O
  O9       1.0000 0.09871  0.06717  0.59871  Biso   1.000  O
  O10      1.0000 0.53153  0.93283  0.03153  Biso   1.000  O
  O11      1.0000 0.09871  0.50000  0.03153  Biso   1.000  O
  O12      1.0000 0.53153  0.50000  0.59871  Biso   1.000  O
  O13      1.0000 0.90129  0.93283  0.40129  Biso   1.000  O
  O14      1.0000 0.46847  0.06717  0.96847  Biso   1.000  O
  O15      1.0000 0.90129  0.50000  0.96847  Biso   1.000  O
  O16      1.0000 0.46847  0.50000  0.40129  Biso   1.000  O
  O17      1.0000 0.10891  0.74629  0.36262  Biso   1.000  O
  O18      1.0000 0.65345  0.75371  0.89974  Biso   1.000  O
  O19      1.0000 0.14524  0.24550  0.89974  Biso   1.000  O
  O20      1.0000 0.61712  0.25450  0.36262  Biso   1.000  O
  O21      1.0000 0.89187  0.25450  0.63738  Biso   1.000  O
  O22      1.0000 0.34577  0.24550  0.10026  Biso   1.000  O
  O23      1.0000 0.85398  0.75371  0.10026  Biso   1.000  O
  O24      1.0000 0.38366  0.74629  0.63738  Biso   1.000  O
  O25      1.0000 0.13738  0.25411  0.39148  Biso   1.000  O
  O26      1.0000 0.60026  0.24589  0.84616  Biso   1.000  O
  O27      1.0000 0.13738  0.74589  0.88327  Biso   1.000  O
  O28      1.0000 0.60026  0.75411  0.35437  Biso   1.000  O
  O29      1.0000 0.39974  0.24589  0.64563  Biso   1.000  O
  O30      1.0000 0.86262  0.25411  0.11673  Biso   1.000  O
  O31      1.0000 0.39974  0.75411  0.15384  Biso   1.000  O
  O32      1.0000 0.86262  0.74589  0.60852  Biso   1.000  O
  O33      1.0000 0.19487  0.98601  0.69487  Biso   1.000  O
  O34      1.0000 0.70887  0.01399  0.20887  Biso   1.000  O
  O35      1.0000 0.19487  0.50000  0.20887  Biso   1.000  O
  O36      1.0000 0.70887  0.50000  0.69487  Biso   1.000  O
  O37      1.0000 0.80513  0.01399  0.30513  Biso   1.000  O
  O38      1.0000 0.29113  0.98601  0.79113  Biso   1.000  O
  O39      1.0000 0.80513  0.50000  0.79113  Biso   1.000  O
  O40      1.0000 0.29113  0.50000  0.30513  Biso   1.000  O
