data_image0
_cell_length_a       15.6806
_cell_length_b       15.6806
_cell_length_c       7.8528
_cell_angle_alpha    90
_cell_angle_beta     90
_cell_angle_gamma    150.998

_symmetry_space_group_name_H-M    "P 1"
_symmetry_int_tables_number       1

loop_
  _symmetry_equiv_pos_as_xyz
  'x, y, z'

loop_
  _atom_site_label
  _atom_site_occupancy
  _atom_site_fract_x
  _atom_site_fract_y
  _atom_site_fract_z
  _atom_site_thermal_displace_type
  _atom_site_B_iso_or_equiv
  _atom_site_type_symbol
  K1       1.0000 0.50000  0.50000  0.00000  Biso   1.000  K
  K2       1.0000 0.00000  0.00000  0.00000  Biso   1.000  K
  K3       1.0000 0.50000  0.50000  0.50000  Biso   1.000  K
  K4       1.0000 0.00000  0.00000  0.50000  Biso   1.000  K
  Pb1      1.0000 0.65993  0.29508  0.97750  Biso   1.000  Pb
  Pb2      1.0000 0.19333  0.85166  0.02250  Biso   1.000  Pb
  Pb3      1.0000 0.70492  0.34007  0.52250  Biso   1.000  Pb
  Pb4      1.0000 0.14834  0.80667  0.47750  Biso   1.000  Pb
  Pb5      1.0000 0.34007  0.70492  0.02250  Biso   1.000  Pb
  Pb6      1.0000 0.80667  0.14834  0.97750  Biso   1.000  Pb
  Pb7      1.0000 0.29508  0.65993  0.47750  Biso   1.000  Pb
  Pb8      1.0000 0.85166  0.19333  0.52250  Biso   1.000  Pb
  Nb1      1.0000 0.50211  0.00211  0.75211  Biso   1.000  Nb
  Nb2      1.0000 0.99789  0.49789  0.74789  Biso   1.000  Nb
  Nb3      1.0000 0.49789  0.99789  0.24789  Biso   1.000  Nb
  Nb4      1.0000 0.00211  0.50211  0.25211  Biso   1.000  Nb
  Ta1      1.0000 0.35130  0.13846  0.74375  Biso   1.000  Ta
  Ta2      1.0000 0.86154  0.64870  0.75625  Biso   1.000  Ta
  Ta3      1.0000 0.36380  0.15096  0.25625  Biso   1.000  Ta
  Ta4      1.0000 0.84904  0.63620  0.24375  Biso   1.000  Ta
  Ta5      1.0000 0.63620  0.84904  0.74375  Biso   1.000  Ta
  Ta6      1.0000 0.15096  0.36380  0.75625  Biso   1.000  Ta
  Ta7      1.0000 0.64870  0.86154  0.25625  Biso   1.000  Ta
  Ta8      1.0000 0.13846  0.35130  0.24375  Biso   1.000  Ta
  O1       1.0000 0.70696  0.29304  0.75000  Biso   1.000  O
  O2       1.0000 0.29304  0.70696  0.75000  Biso   1.000  O
  O3       1.0000 0.70696  0.29304  0.25000  Biso   1.000  O
  O4       1.0000 0.29304  0.70696  0.25000  Biso   1.000  O
  O5       1.0000 0.50000  0.00000  0.50000  Biso   1.000  O
  O6       1.0000 1.00000  0.50000  0.50000  Biso   1.000  O
  O7       1.0000 0.50000  0.00000  0.00000  Biso   1.000  O
  O8       1.0000 0.00000  0.50000  0.00000  Biso   1.000  O
  O9       1.0000 0.42073  0.05097  0.76944  Biso   1.000  O
  O10      1.0000 0.94903  0.57927  0.73056  Biso   1.000  O
  O11      1.0000 0.38185  0.01209  0.23056  Biso   1.000  O
  O12      1.0000 0.98791  0.61815  0.26944  Biso   1.000  O
  O13      1.0000 0.61815  0.98791  0.76944  Biso   1.000  O
  O14      1.0000 0.01209  0.38185  0.73056  Biso   1.000  O
  O15      1.0000 0.57927  0.94903  0.23056  Biso   1.000  O
  O16      1.0000 0.05097  0.42073  0.26944  Biso   1.000  O
  O17      1.0000 0.62300  0.37700  0.75000  Biso   1.000  O
  O18      1.0000 0.11464  0.88536  0.75000  Biso   1.000  O
  O19      1.0000 0.65175  0.34825  0.25000  Biso   1.000  O
  O20      1.0000 0.08589  0.91411  0.25000  Biso   1.000  O
  O21      1.0000 0.34825  0.65175  0.75000  Biso   1.000  O
  O22      1.0000 0.91411  0.08589  0.75000  Biso   1.000  O
  O23      1.0000 0.37700  0.62300  0.25000  Biso   1.000  O
  O24      1.0000 0.88536  0.11464  0.25000  Biso   1.000  O
  O25      1.0000 0.61270  0.87909  0.50000  Biso   1.000  O
  O26      1.0000 0.14966  0.35855  0.50000  Biso   1.000  O
  O27      1.0000 0.64145  0.85034  0.00000  Biso   1.000  O
  O28      1.0000 0.12091  0.38730  0.00000  Biso   1.000  O
  O29      1.0000 0.38730  0.12091  0.50000  Biso   1.000  O
  O30      1.0000 0.85034  0.64145  0.50000  Biso   1.000  O
  O31      1.0000 0.35855  0.14966  0.00000  Biso   1.000  O
  O32      1.0000 0.87909  0.61270  0.00000  Biso   1.000  O
  O33      1.0000 0.29428  0.19802  0.73915  Biso   1.000  O
  O34      1.0000 0.80198  0.70572  0.76085  Biso   1.000  O
  O35      1.0000 0.31598  0.21972  0.26085  Biso   1.000  O
  O36      1.0000 0.78028  0.68402  0.23915  Biso   1.000  O
  O37      1.0000 0.68402  0.78028  0.73915  Biso   1.000  O
  O38      1.0000 0.21972  0.31598  0.76085  Biso   1.000  O
  O39      1.0000 0.70572  0.80198  0.26085  Biso   1.000  O
  O40      1.0000 0.19802  0.29428  0.23915  Biso   1.000  O
