data_image0
_cell_length_a       16.1647
_cell_length_b       16.1647
_cell_length_c       7.8528
_cell_angle_alpha    104.058
_cell_angle_beta     104.058
_cell_angle_gamma    139.818

_symmetry_space_group_name_H-M    "P 1"
_symmetry_int_tables_number       1

loop_
  _symmetry_equiv_pos_as_xyz
  'x, y, z'

loop_
  _atom_site_label
  _atom_site_occupancy
  _atom_site_fract_x
  _atom_site_fract_y
  _atom_site_fract_z
  _atom_site_thermal_displace_type
  _atom_site_B_iso_or_equiv
  _atom_site_type_symbol
  K1       1.0000 0.21236  0.21236  0.75000  Biso   1.000  K
  K2       1.0000 0.71236  0.71236  0.75000  Biso   1.000  K
  K3       1.0000 0.28764  0.28764  0.25000  Biso   1.000  K
  K4       1.0000 0.78764  0.78764  0.25000  Biso   1.000  K
  Pb1      1.0000 0.44485  0.08000  0.75000  Biso   1.000  Pb
  Pb2      1.0000 0.93326  0.59159  0.75000  Biso   1.000  Pb
  Pb3      1.0000 0.40841  0.06674  0.25000  Biso   1.000  Pb
  Pb4      1.0000 0.92000  0.55515  0.25000  Biso   1.000  Pb
  Pb5      1.0000 0.55515  0.92000  0.25000  Biso   1.000  Pb
  Pb6      1.0000 0.06674  0.40841  0.25000  Biso   1.000  Pb
  Pb7      1.0000 0.59159  0.93326  0.75000  Biso   1.000  Pb
  Pb8      1.0000 0.08000  0.44485  0.75000  Biso   1.000  Pb
  Nb1      1.0000 0.74969  0.24969  0.75000  Biso   1.000  Nb
  Nb2      1.0000 0.24969  0.74969  0.75000  Biso   1.000  Nb
  Nb3      1.0000 0.75031  0.25031  0.25000  Biso   1.000  Nb
  Nb4      1.0000 0.25031  0.75031  0.25000  Biso   1.000  Nb
  Ta1      1.0000 0.61224  0.39940  0.75113  Biso   1.000  Ta
  Ta2      1.0000 0.11224  0.89940  0.74887  Biso   1.000  Ta
  Ta3      1.0000 0.60060  0.38776  0.24887  Biso   1.000  Ta
  Ta4      1.0000 0.10060  0.88776  0.25113  Biso   1.000  Ta
  Ta5      1.0000 0.89940  0.11224  0.74887  Biso   1.000  Ta
  Ta6      1.0000 0.39940  0.61224  0.75113  Biso   1.000  Ta
  Ta7      1.0000 0.88776  0.10060  0.25113  Biso   1.000  Ta
  Ta8      1.0000 0.38776  0.60060  0.24887  Biso   1.000  Ta
  O1       1.0000 0.70696  0.29304  0.00000  Biso   1.000  O
  O2       1.0000 0.29304  0.70696  0.00000  Biso   1.000  O
  O3       1.0000 0.79304  0.20696  0.50000  Biso   1.000  O
  O4       1.0000 0.20696  0.79304  0.50000  Biso   1.000  O
  O5       1.0000 0.00000  0.50000  0.00000  Biso   1.000  O
  O6       1.0000 0.50000  0.00000  0.00000  Biso   1.000  O
  O7       1.0000 0.00000  0.50000  0.50000  Biso   1.000  O
  O8       1.0000 0.50000  0.00000  0.50000  Biso   1.000  O
  O9       1.0000 0.67911  0.30935  0.71641  Biso   1.000  O
  O10      1.0000 0.17911  0.80935  0.78359  Biso   1.000  O
  O11      1.0000 0.69065  0.32089  0.28359  Biso   1.000  O
  O12      1.0000 0.19065  0.82089  0.21641  Biso   1.000  O
  O13      1.0000 0.80935  0.17911  0.78359  Biso   1.000  O
  O14      1.0000 0.30935  0.67911  0.71641  Biso   1.000  O
  O15      1.0000 0.82089  0.19065  0.21641  Biso   1.000  O
  O16      1.0000 0.32089  0.69065  0.28359  Biso   1.000  O
  O17      1.0000 0.62868  0.37132  0.00000  Biso   1.000  O
  O18      1.0000 0.09157  0.90843  0.00000  Biso   1.000  O
  O19      1.0000 0.60896  0.39104  0.50000  Biso   1.000  O
  O20      1.0000 0.14607  0.85393  0.50000  Biso   1.000  O
  O21      1.0000 0.85393  0.14607  0.50000  Biso   1.000  O
  O22      1.0000 0.39104  0.60896  0.50000  Biso   1.000  O
  O23      1.0000 0.90843  0.09157  0.00000  Biso   1.000  O
  O24      1.0000 0.37132  0.62868  0.00000  Biso   1.000  O
  O25      1.0000 0.12249  0.37751  0.99589  Biso   1.000  O
  O26      1.0000 0.62249  0.87751  0.00411  Biso   1.000  O
  O27      1.0000 0.13987  0.36013  0.50411  Biso   1.000  O
  O28      1.0000 0.63987  0.86013  0.49589  Biso   1.000  O
  O29      1.0000 0.87751  0.62249  0.00411  Biso   1.000  O
  O30      1.0000 0.37751  0.12249  0.99589  Biso   1.000  O
  O31      1.0000 0.86013  0.63987  0.49589  Biso   1.000  O
  O32      1.0000 0.36013  0.13987  0.50411  Biso   1.000  O
  O33      1.0000 0.56377  0.46751  0.75700  Biso   1.000  O
  O34      1.0000 0.06377  0.96751  0.74300  Biso   1.000  O
  O35      1.0000 0.53249  0.43623  0.24300  Biso   1.000  O
  O36      1.0000 0.03249  0.93623  0.25700  Biso   1.000  O
  O37      1.0000 0.96751  0.06377  0.74300  Biso   1.000  O
  O38      1.0000 0.46751  0.56377  0.75700  Biso   1.000  O
  O39      1.0000 0.93623  0.03249  0.25700  Biso   1.000  O
  O40      1.0000 0.43623  0.53249  0.24300  Biso   1.000  O
