data_image0
_cell_length_a       3.9264
_cell_length_b       15.6806
_cell_length_c       15.6806
_cell_angle_alpha    150.998
_cell_angle_beta     90
_cell_angle_gamma    90

_symmetry_space_group_name_H-M    "P 1"
_symmetry_int_tables_number       1

loop_
  _symmetry_equiv_pos_as_xyz
  'x, y, z'

loop_
  _atom_site_label
  _atom_site_occupancy
  _atom_site_fract_x
  _atom_site_fract_y
  _atom_site_fract_z
  _atom_site_thermal_displace_type
  _atom_site_B_iso_or_equiv
  _atom_site_type_symbol
  K1       1.0000 0.50000  0.00000  0.00000  Biso   1.000  K
  K2       1.0000 0.50000  0.50000  0.50000  Biso   1.000  K
  Pb1      1.0000 0.50000  0.80029  0.16514  Biso   1.000  Pb
  Pb2      1.0000 0.50000  0.31188  0.65355  Biso   1.000  Pb
  Pb3      1.0000 0.50000  0.16514  0.80029  Biso   1.000  Pb
  Pb4      1.0000 0.50000  0.65355  0.31188  Biso   1.000  Pb
  Nb1      1.0000 0.00000  0.48320  0.98320  Biso   1.000  Nb
  Nb2      1.0000 0.00000  0.98320  0.48320  Biso   1.000  Nb
  Ta1      1.0000 0.00000  0.65692  0.86976  Biso   1.000  Ta
  Ta2      1.0000 0.00000  0.15467  0.36751  Biso   1.000  Ta
  Ta3      1.0000 0.00000  0.36751  0.15467  Biso   1.000  Ta
  Ta4      1.0000 0.00000  0.86976  0.65692  Biso   1.000  Ta
  O1       1.0000 0.00000  0.81283  0.22675  Biso   1.000  O
  O2       1.0000 0.00000  0.22675  0.81283  Biso   1.000  O
  O3       1.0000 0.50000  0.54185  0.04185  Biso   1.000  O
  O4       1.0000 0.50000  0.04185  0.54185  Biso   1.000  O
  O5       1.0000 0.00000  0.55461  0.92437  Biso   1.000  O
  O6       1.0000 0.00000  0.12179  0.49155  Biso   1.000  O
  O7       1.0000 0.00000  0.49155  0.12179  Biso   1.000  O
  O8       1.0000 0.00000  0.92437  0.55461  Biso   1.000  O
  O9       1.0000 0.00000  0.87235  0.14710  Biso   1.000  O
  O10      1.0000 0.00000  0.40946  0.60999  Biso   1.000  O
  O11      1.0000 0.00000  0.14710  0.87235  Biso   1.000  O
  O12      1.0000 0.00000  0.60999  0.40946  Biso   1.000  O
  O13      1.0000 0.50000  0.37727  0.13963  Biso   1.000  O
  O14      1.0000 0.50000  0.88548  0.64784  Biso   1.000  O
  O15      1.0000 0.50000  0.64784  0.88548  Biso   1.000  O
  O16      1.0000 0.50000  0.13963  0.37727  Biso   1.000  O
  O17      1.0000 0.00000  0.71626  0.81252  Biso   1.000  O
  O18      1.0000 0.00000  0.20227  0.29853  Biso   1.000  O
  O19      1.0000 0.00000  0.29853  0.20227  Biso   1.000  O
  O20      1.0000 0.00000  0.81252  0.71626  Biso   1.000  O
