data_image0
_cell_length_a       16.1647
_cell_length_b       7.8528
_cell_length_c       16.1647
_cell_angle_alpha    75.9423
_cell_angle_beta     28.1154
_cell_angle_gamma    75.9423

_symmetry_space_group_name_H-M    "P 1"
_symmetry_int_tables_number       1

loop_
  _symmetry_equiv_pos_as_xyz
  'x, y, z'

loop_
  _atom_site_label
  _atom_site_occupancy
  _atom_site_fract_x
  _atom_site_fract_y
  _atom_site_fract_z
  _atom_site_thermal_displace_type
  _atom_site_B_iso_or_equiv
  _atom_site_type_symbol
  K1       1.0000 0.03764  0.03764  0.96236  Biso   1.000  K
  K2       1.0000 0.53764  0.53764  0.46236  Biso   1.000  K
  K3       1.0000 0.46236  0.96236  0.53764  Biso   1.000  K
  K4       1.0000 0.96236  0.46236  0.03764  Biso   1.000  K
  Pb1      1.0000 0.79935  0.17580  0.82420  Biso   1.000  Pb
  Pb2      1.0000 0.32254  0.65261  0.34739  Biso   1.000  Pb
  Pb3      1.0000 0.33580  0.18906  0.31094  Biso   1.000  Pb
  Pb4      1.0000 0.83580  0.68906  0.81094  Biso   1.000  Pb
  Pb5      1.0000 0.18906  0.33580  0.16420  Biso   1.000  Pb
  Pb6      1.0000 0.68906  0.83580  0.66420  Biso   1.000  Pb
  Pb7      1.0000 0.65261  0.32254  0.67746  Biso   1.000  Pb
  Pb8      1.0000 0.17580  0.79935  0.20065  Biso   1.000  Pb
  Nb1      1.0000 0.49969  0.49969  0.00031  Biso   1.000  Nb
  Nb2      1.0000 0.99969  0.99969  0.50031  Biso   1.000  Nb
  Nb3      1.0000 0.00031  0.50031  0.49969  Biso   1.000  Nb
  Nb4      1.0000 0.50031  0.00031  0.99969  Biso   1.000  Nb
  Ta1      1.0000 0.65053  0.36111  0.13663  Biso   1.000  Ta
  Ta2      1.0000 0.14827  0.86337  0.63889  Biso   1.000  Ta
  Ta3      1.0000 0.13663  0.34947  0.65053  Biso   1.000  Ta
  Ta4      1.0000 0.63889  0.85173  0.14827  Biso   1.000  Ta
  Ta5      1.0000 0.36111  0.65053  0.85173  Biso   1.000  Ta
  Ta6      1.0000 0.86337  0.14827  0.34947  Biso   1.000  Ta
  Ta7      1.0000 0.85173  0.63889  0.36111  Biso   1.000  Ta
  Ta8      1.0000 0.34947  0.13663  0.86337  Biso   1.000  Ta
  O1       1.0000 0.79304  0.45696  0.79304  Biso   1.000  O
  O2       1.0000 0.20696  0.04304  0.20696  Biso   1.000  O
  O3       1.0000 0.20696  0.54304  0.20696  Biso   1.000  O
  O4       1.0000 0.79304  0.95696  0.79304  Biso   1.000  O
  O5       1.0000 0.45696  0.79304  0.95696  Biso   1.000  O
  O6       1.0000 0.04304  0.20696  0.54304  Biso   1.000  O
  O7       1.0000 0.95696  0.79304  0.45696  Biso   1.000  O
  O8       1.0000 0.54304  0.20696  0.04304  Biso   1.000  O
  O9       1.0000 0.52576  0.46269  0.10448  Biso   1.000  O
  O10      1.0000 0.09293  0.89552  0.53731  Biso   1.000  O
  O11      1.0000 0.10448  0.47424  0.52576  Biso   1.000  O
  O12      1.0000 0.53731  0.90707  0.09293  Biso   1.000  O
  O13      1.0000 0.46269  0.52576  0.90707  Biso   1.000  O
  O14      1.0000 0.89552  0.09293  0.47424  Biso   1.000  O
  O15      1.0000 0.90707  0.53731  0.46269  Biso   1.000  O
  O16      1.0000 0.47424  0.10448  0.89552  Biso   1.000  O
  O17      1.0000 0.85393  0.39196  0.85393  Biso   1.000  O
  O18      1.0000 0.39104  0.86306  0.39104  Biso   1.000  O
  O19      1.0000 0.40843  0.33747  0.40843  Biso   1.000  O
  O20      1.0000 0.87132  0.88279  0.87132  Biso   1.000  O
  O21      1.0000 0.12868  0.62542  0.12868  Biso   1.000  O
  O22      1.0000 0.59157  0.15432  0.59157  Biso   1.000  O
  O23      1.0000 0.60896  0.64515  0.60896  Biso   1.000  O
  O24      1.0000 0.14607  0.09983  0.14607  Biso   1.000  O
  O25      1.0000 0.39196  0.85393  0.90017  Biso   1.000  O
  O26      1.0000 0.86306  0.39104  0.35485  Biso   1.000  O
  O27      1.0000 0.88279  0.87132  0.37458  Biso   1.000  O
  O28      1.0000 0.33747  0.40843  0.84568  Biso   1.000  O
  O29      1.0000 0.64515  0.60896  0.13694  Biso   1.000  O
  O30      1.0000 0.09983  0.14607  0.60804  Biso   1.000  O
  O31      1.0000 0.15432  0.59157  0.66253  Biso   1.000  O
  O32      1.0000 0.62542  0.12868  0.11721  Biso   1.000  O
  O33      1.0000 0.72450  0.30677  0.17924  Biso   1.000  O
  O34      1.0000 0.21051  0.82076  0.69323  Biso   1.000  O
  O35      1.0000 0.17924  0.27550  0.72450  Biso   1.000  O
  O36      1.0000 0.69323  0.78949  0.21051  Biso   1.000  O
  O37      1.0000 0.30677  0.72450  0.78949  Biso   1.000  O
  O38      1.0000 0.82076  0.21051  0.27550  Biso   1.000  O
  O39      1.0000 0.78949  0.69323  0.30677  Biso   1.000  O
  O40      1.0000 0.27550  0.17924  0.82076  Biso   1.000  O
