data_image0
_cell_length_a       3.9264
_cell_length_b       30.3622
_cell_length_c       7.8528
_cell_angle_alpha    90
_cell_angle_beta     90
_cell_angle_gamma    90

_symmetry_space_group_name_H-M    "P 1"
_symmetry_int_tables_number       1

loop_
  _symmetry_equiv_pos_as_xyz
  'x, y, z'

loop_
  _atom_site_label
  _atom_site_occupancy
  _atom_site_fract_x
  _atom_site_fract_y
  _atom_site_fract_z
  _atom_site_thermal_displace_type
  _atom_site_B_iso_or_equiv
  _atom_site_type_symbol
  K1       1.0000 0.09893  0.75000  0.79947  Biso   1.000  K
  K2       1.0000 0.90107  0.25000  0.70053  Biso   1.000  K
  K3       1.0000 0.09893  0.75000  0.29947  Biso   1.000  K
  K4       1.0000 0.90107  0.25000  0.20053  Biso   1.000  K
  Pb1      1.0000 0.99811  0.93243  0.74906  Biso   1.000  Pb
  Pb2      1.0000 0.00189  0.42083  0.75094  Biso   1.000  Pb
  Pb3      1.0000 0.99811  0.92083  0.24906  Biso   1.000  Pb
  Pb4      1.0000 0.00189  0.43243  0.25094  Biso   1.000  Pb
  Pb5      1.0000 0.00189  0.06757  0.25094  Biso   1.000  Pb
  Pb6      1.0000 0.99811  0.57917  0.24906  Biso   1.000  Pb
  Pb7      1.0000 0.00189  0.07917  0.75094  Biso   1.000  Pb
  Pb8      1.0000 0.99811  0.56757  0.74906  Biso   1.000  Pb
  Nb1      1.0000 0.50000  0.00000  0.50000  Biso   1.000  Nb
  Nb2      1.0000 0.50000  0.50000  0.50000  Biso   1.000  Nb
  Nb3      1.0000 0.50000  0.00000  0.00000  Biso   1.000  Nb
  Nb4      1.0000 0.50000  0.50000  0.00000  Biso   1.000  Nb
  Ta1      1.0000 0.49447  0.85642  0.49836  Biso   1.000  Ta
  Ta2      1.0000 0.50553  0.35642  0.50164  Biso   1.000  Ta
  Ta3      1.0000 0.49447  0.85642  0.99611  Biso   1.000  Ta
  Ta4      1.0000 0.50553  0.35642  0.00389  Biso   1.000  Ta
  Ta5      1.0000 0.50553  0.14358  0.50164  Biso   1.000  Ta
  Ta6      1.0000 0.49447  0.64358  0.49836  Biso   1.000  Ta
  Ta7      1.0000 0.50553  0.14358  0.00389  Biso   1.000  Ta
  Ta8      1.0000 0.49447  0.64358  0.99611  Biso   1.000  Ta
  O1       1.0000 0.50000  0.95696  0.75000  Biso   1.000  O
  O2       1.0000 0.50000  0.54304  0.75000  Biso   1.000  O
  O3       1.0000 0.50000  0.04304  0.25000  Biso   1.000  O
  O4       1.0000 0.50000  0.45696  0.25000  Biso   1.000  O
  O5       1.0000 0.00000  0.00000  0.50000  Biso   1.000  O
  O6       1.0000 0.00000  0.50000  0.50000  Biso   1.000  O
  O7       1.0000 0.00000  0.00000  0.00000  Biso   1.000  O
  O8       1.0000 0.00000  0.50000  0.00000  Biso   1.000  O
  O9       1.0000 0.49876  0.93488  0.46579  Biso   1.000  O
  O10      1.0000 0.50124  0.43488  0.53421  Biso   1.000  O
  O11      1.0000 0.49876  0.93488  0.03297  Biso   1.000  O
  O12      1.0000 0.50124  0.43488  0.96703  Biso   1.000  O
  O13      1.0000 0.50124  0.06512  0.53421  Biso   1.000  O
  O14      1.0000 0.49876  0.56512  0.46579  Biso   1.000  O
  O15      1.0000 0.50124  0.06512  0.96703  Biso   1.000  O
  O16      1.0000 0.49876  0.56512  0.03297  Biso   1.000  O
  O17      1.0000 0.49805  0.88738  0.74903  Biso   1.000  O
  O18      1.0000 0.50195  0.35026  0.75097  Biso   1.000  O
  O19      1.0000 0.49805  0.85026  0.24903  Biso   1.000  O
  O20      1.0000 0.50195  0.38738  0.25097  Biso   1.000  O
  O21      1.0000 0.50195  0.11262  0.25097  Biso   1.000  O
  O22      1.0000 0.49805  0.64974  0.24903  Biso   1.000  O
  O23      1.0000 0.50195  0.14974  0.75097  Biso   1.000  O
  O24      1.0000 0.49805  0.61262  0.74903  Biso   1.000  O
  O25      1.0000 0.00193  0.13118  0.49687  Biso   1.000  O
  O26      1.0000 0.99807  0.63118  0.50313  Biso   1.000  O
  O27      1.0000 0.00193  0.13118  0.00508  Biso   1.000  O
  O28      1.0000 0.99807  0.63118  0.99492  Biso   1.000  O
  O29      1.0000 0.99807  0.86882  0.50313  Biso   1.000  O
  O30      1.0000 0.00193  0.36882  0.49687  Biso   1.000  O
  O31      1.0000 0.99807  0.86882  0.99492  Biso   1.000  O
  O32      1.0000 0.00193  0.36882  0.00508  Biso   1.000  O
  O33      1.0000 0.49198  0.79813  0.50299  Biso   1.000  O
  O34      1.0000 0.50802  0.29813  0.49701  Biso   1.000  O
  O35      1.0000 0.49198  0.79813  0.98900  Biso   1.000  O
  O36      1.0000 0.50802  0.29813  0.01100  Biso   1.000  O
  O37      1.0000 0.50802  0.20187  0.49701  Biso   1.000  O
  O38      1.0000 0.49198  0.70187  0.50299  Biso   1.000  O
  O39      1.0000 0.50802  0.20187  0.01100  Biso   1.000  O
  O40      1.0000 0.49198  0.70187  0.98900  Biso   1.000  O
