data_image0
_cell_length_a       16.1647
_cell_length_b       16.1647
_cell_length_c       16.1647
_cell_angle_alpha    151.885
_cell_angle_beta     151.885
_cell_angle_gamma    40.1819

_symmetry_space_group_name_H-M    "P 1"
_symmetry_int_tables_number       1

loop_
  _symmetry_equiv_pos_as_xyz
  'x, y, z'

loop_
  _atom_site_label
  _atom_site_occupancy
  _atom_site_fract_x
  _atom_site_fract_y
  _atom_site_fract_z
  _atom_site_thermal_displace_type
  _atom_site_B_iso_or_equiv
  _atom_site_type_symbol
  K1       1.0000 0.05906  0.80906  0.25000  Biso   1.000  K
  K2       1.0000 0.44094  0.19094  0.25000  Biso   1.000  K
  K3       1.0000 0.55906  0.80906  0.75000  Biso   1.000  K
  K4       1.0000 0.94094  0.19094  0.75000  Biso   1.000  K
  Pb1      1.0000 0.82100  0.57100  0.25000  Biso   1.000  Pb
  Pb2      1.0000 0.32574  0.07574  0.25000  Biso   1.000  Pb
  Pb3      1.0000 0.33259  0.58259  0.75000  Biso   1.000  Pb
  Pb4      1.0000 0.81415  0.06415  0.75000  Biso   1.000  Pb
  Pb5      1.0000 0.17900  0.42900  0.75000  Biso   1.000  Pb
  Pb6      1.0000 0.67426  0.92426  0.75000  Biso   1.000  Pb
  Pb7      1.0000 0.66741  0.41741  0.25000  Biso   1.000  Pb
  Pb8      1.0000 0.18585  0.93585  0.25000  Biso   1.000  Pb
  Nb1      1.0000 1.00000  0.74821  0.74821  Biso   1.000  Nb
  Nb2      1.0000 0.50000  0.25179  0.75179  Biso   1.000  Nb
  Nb3      1.0000 0.50000  0.74821  0.24821  Biso   1.000  Nb
  Nb4      1.0000 0.00000  0.25179  0.25179  Biso   1.000  Nb
  Ta1      1.0000 0.14245  0.89884  0.75413  Biso   1.000  Ta
  Ta2      1.0000 0.64471  0.38832  0.74587  Biso   1.000  Ta
  Ta3      1.0000 0.64471  0.89884  0.25639  Biso   1.000  Ta
  Ta4      1.0000 0.14245  0.38832  0.24361  Biso   1.000  Ta
  Ta5      1.0000 0.85755  0.61168  0.75639  Biso   1.000  Ta
  Ta6      1.0000 0.35529  0.10116  0.74361  Biso   1.000  Ta
  Ta7      1.0000 0.35529  0.61168  0.25413  Biso   1.000  Ta
  Ta8      1.0000 0.85755  0.10116  0.24587  Biso   1.000  Ta
  O1       1.0000 0.79304  0.79378  0.50074  Biso   1.000  O
  O2       1.0000 0.20696  0.20622  0.49926  Biso   1.000  O
  O3       1.0000 0.20696  0.70770  0.00074  Biso   1.000  O
  O4       1.0000 0.79304  0.29230  0.99926  Biso   1.000  O
  O5       1.0000 0.00000  0.00000  0.00000  Biso   1.000  O
  O6       1.0000 0.50000  0.50000  0.00000  Biso   1.000  O
  O7       1.0000 0.50000  0.00000  0.50000  Biso   1.000  O
  O8       1.0000 1.00000  0.50000  0.50000  Biso   1.000  O
  O9       1.0000 0.09871  0.80912  0.77759  Biso   1.000  O
  O10      1.0000 0.53153  0.32112  0.72241  Biso   1.000  O
  O11      1.0000 0.53153  0.80912  0.21041  Biso   1.000  O
  O12      1.0000 0.09871  0.32112  0.28959  Biso   1.000  O
  O13      1.0000 0.90129  0.67888  0.71041  Biso   1.000  O
  O14      1.0000 0.46847  0.19088  0.78959  Biso   1.000  O
  O15      1.0000 0.46847  0.67888  0.27759  Biso   1.000  O
  O16      1.0000 0.90129  0.19088  0.22241  Biso   1.000  O
  O17      1.0000 0.86262  0.86399  0.50137  Biso   1.000  O
  O18      1.0000 0.39974  0.39837  0.49863  Biso   1.000  O
  O19      1.0000 0.39974  0.90110  0.00137  Biso   1.000  O
  O20      1.0000 0.86262  0.36126  0.99863  Biso   1.000  O
  O21      1.0000 0.13738  0.63874  0.00137  Biso   1.000  O
  O22      1.0000 0.60026  0.09890  0.99863  Biso   1.000  O
  O23      1.0000 0.60026  0.60163  0.50137  Biso   1.000  O
  O24      1.0000 0.13738  0.13601  0.49863  Biso   1.000  O
  O25      1.0000 0.88543  0.88132  0.00411  Biso   1.000  O
  O26      1.0000 0.35221  0.35632  0.99589  Biso   1.000  O
  O27      1.0000 0.37722  0.88132  0.49589  Biso   1.000  O
  O28      1.0000 0.86042  0.35632  0.50411  Biso   1.000  O
  O29      1.0000 0.11457  0.11868  0.99589  Biso   1.000  O
  O30      1.0000 0.64779  0.64368  0.00411  Biso   1.000  O
  O31      1.0000 0.62278  0.11868  0.50411  Biso   1.000  O
  O32      1.0000 0.13958  0.64368  0.49589  Biso   1.000  O
  O33      1.0000 0.19487  0.97466  0.76579  Biso   1.000  O
  O34      1.0000 0.70887  0.42908  0.73421  Biso   1.000  O
  O35      1.0000 0.70887  0.97466  0.27979  Biso   1.000  O
  O36      1.0000 0.19487  0.42908  0.22021  Biso   1.000  O
  O37      1.0000 0.80513  0.57092  0.77979  Biso   1.000  O
  O38      1.0000 0.29113  0.02534  0.72021  Biso   1.000  O
  O39      1.0000 0.29113  0.57092  0.26579  Biso   1.000  O
  O40      1.0000 0.80513  0.02534  0.23421  Biso   1.000  O
