data_image0
_cell_length_a       7.8528
_cell_length_b       7.8528
_cell_length_c       30.3622
_cell_angle_alpha    90
_cell_angle_beta     90
_cell_angle_gamma    90

_symmetry_space_group_name_H-M    "P 1"
_symmetry_int_tables_number       1

loop_
  _symmetry_equiv_pos_as_xyz
  'x, y, z'

loop_
  _atom_site_label
  _atom_site_occupancy
  _atom_site_fract_x
  _atom_site_fract_y
  _atom_site_fract_z
  _atom_site_thermal_displace_type
  _atom_site_B_iso_or_equiv
  _atom_site_type_symbol
  K1       1.0000 0.00000  0.00000  0.50000  Biso   1.000  K
  K2       1.0000 0.00000  0.00000  0.00000  Biso   1.000  K
  K3       1.0000 0.50000  0.00000  0.50000  Biso   1.000  K
  K4       1.0000 0.50000  0.00000  0.00000  Biso   1.000  K
  K5       1.0000 0.00000  0.50000  0.50000  Biso   1.000  K
  K6       1.0000 0.00000  0.50000  0.00000  Biso   1.000  K
  K7       1.0000 0.50000  0.50000  0.50000  Biso   1.000  K
  K8       1.0000 0.50000  0.50000  0.00000  Biso   1.000  K
  Pb1      1.0000 0.99517  0.00483  0.68822  Biso   1.000  Pb
  Pb2      1.0000 0.00483  0.99517  0.16504  Biso   1.000  Pb
  Pb3      1.0000 0.49517  0.00483  0.67663  Biso   1.000  Pb
  Pb4      1.0000 0.50483  0.99517  0.17663  Biso   1.000  Pb
  Pb5      1.0000 0.99517  0.50483  0.67663  Biso   1.000  Pb
  Pb6      1.0000 0.00483  0.49517  0.17663  Biso   1.000  Pb
  Pb7      1.0000 0.49517  0.50483  0.66504  Biso   1.000  Pb
  Pb8      1.0000 0.50483  0.49517  0.18822  Biso   1.000  Pb
  Pb9      1.0000 0.49517  0.00483  0.82337  Biso   1.000  Pb
  Pb10     1.0000 0.50483  0.99517  0.32337  Biso   1.000  Pb
  Pb11     1.0000 0.99517  0.00483  0.83496  Biso   1.000  Pb
  Pb12     1.0000 0.00483  0.99517  0.31178  Biso   1.000  Pb
  Pb13     1.0000 0.49517  0.50483  0.81178  Biso   1.000  Pb
  Pb14     1.0000 0.50483  0.49517  0.33496  Biso   1.000  Pb
  Pb15     1.0000 0.99517  0.50483  0.82337  Biso   1.000  Pb
  Pb16     1.0000 0.00483  0.49517  0.32337  Biso   1.000  Pb
  Nb1      1.0000 0.75000  0.75000  0.75000  Biso   1.000  Nb
  Nb2      1.0000 0.75000  0.75000  0.25000  Biso   1.000  Nb
  Nb3      1.0000 0.25000  0.75000  0.75000  Biso   1.000  Nb
  Nb4      1.0000 0.25000  0.75000  0.25000  Biso   1.000  Nb
  Nb5      1.0000 0.75000  0.25000  0.75000  Biso   1.000  Nb
  Nb6      1.0000 0.75000  0.25000  0.25000  Biso   1.000  Nb
  Nb7      1.0000 0.25000  0.25000  0.75000  Biso   1.000  Nb
  Nb8      1.0000 0.25000  0.25000  0.25000  Biso   1.000  Nb
  Ta1      1.0000 0.73107  0.77119  0.60642  Biso   1.000  Ta
  Ta2      1.0000 0.76893  0.72881  0.10642  Biso   1.000  Ta
  Ta3      1.0000 0.22881  0.77119  0.60642  Biso   1.000  Ta
  Ta4      1.0000 0.27119  0.72881  0.10642  Biso   1.000  Ta
  Ta5      1.0000 0.73107  0.26893  0.60642  Biso   1.000  Ta
  Ta6      1.0000 0.76893  0.23107  0.10642  Biso   1.000  Ta
  Ta7      1.0000 0.22881  0.26893  0.60642  Biso   1.000  Ta
  Ta8      1.0000 0.27119  0.23107  0.10642  Biso   1.000  Ta
  Ta9      1.0000 0.72881  0.76893  0.89358  Biso   1.000  Ta
  Ta10     1.0000 0.77119  0.73107  0.39358  Biso   1.000  Ta
  Ta11     1.0000 0.23107  0.76893  0.89358  Biso   1.000  Ta
  Ta12     1.0000 0.26893  0.73107  0.39358  Biso   1.000  Ta
  Ta13     1.0000 0.72881  0.27119  0.89358  Biso   1.000  Ta
  Ta14     1.0000 0.77119  0.22881  0.39358  Biso   1.000  Ta
  Ta15     1.0000 0.23107  0.27119  0.89358  Biso   1.000  Ta
  Ta16     1.0000 0.26893  0.22881  0.39358  Biso   1.000  Ta
  O1       1.0000 0.98700  0.77418  0.70696  Biso   1.000  O
  O2       1.0000 0.01300  0.72582  0.29304  Biso   1.000  O
  O3       1.0000 0.48700  0.77418  0.79304  Biso   1.000  O
  O4       1.0000 0.51300  0.72582  0.20696  Biso   1.000  O
  O5       1.0000 0.98700  0.27418  0.70696  Biso   1.000  O
  O6       1.0000 0.01300  0.22582  0.29304  Biso   1.000  O
  O7       1.0000 0.48700  0.27418  0.79304  Biso   1.000  O
  O8       1.0000 0.51300  0.22582  0.20696  Biso   1.000  O
  O9       1.0000 0.72582  0.51300  0.79304  Biso   1.000  O
  O10      1.0000 0.77418  0.48700  0.20696  Biso   1.000  O
  O11      1.0000 0.22582  0.51300  0.79304  Biso   1.000  O
  O12      1.0000 0.27418  0.48700  0.20696  Biso   1.000  O
  O13      1.0000 0.72582  0.01300  0.70696  Biso   1.000  O
  O14      1.0000 0.77418  0.98700  0.29304  Biso   1.000  O
  O15      1.0000 0.22582  0.01300  0.70696  Biso   1.000  O
  O16      1.0000 0.27418  0.98700  0.29304  Biso   1.000  O
  O17      1.0000 0.70137  0.73146  0.68488  Biso   1.000  O
  O18      1.0000 0.79863  0.76854  0.18488  Biso   1.000  O
  O19      1.0000 0.26854  0.73146  0.68488  Biso   1.000  O
  O20      1.0000 0.23146  0.76854  0.18488  Biso   1.000  O
  O21      1.0000 0.70137  0.29863  0.68488  Biso   1.000  O
  O22      1.0000 0.79863  0.20137  0.18488  Biso   1.000  O
  O23      1.0000 0.26854  0.29863  0.68488  Biso   1.000  O
  O24      1.0000 0.23146  0.20137  0.18488  Biso   1.000  O
  O25      1.0000 0.76854  0.79863  0.81512  Biso   1.000  O
  O26      1.0000 0.73146  0.70137  0.31512  Biso   1.000  O
  O27      1.0000 0.20137  0.79863  0.81512  Biso   1.000  O
  O28      1.0000 0.29863  0.70137  0.31512  Biso   1.000  O
  O29      1.0000 0.76854  0.23146  0.81512  Biso   1.000  O
  O30      1.0000 0.73146  0.26854  0.31512  Biso   1.000  O
  O31      1.0000 0.20137  0.23146  0.81512  Biso   1.000  O
  O32      1.0000 0.29863  0.26854  0.31512  Biso   1.000  O
  O33      1.0000 0.99194  0.76349  0.63738  Biso   1.000  O
  O34      1.0000 0.00806  0.73651  0.10026  Biso   1.000  O
  O35      1.0000 0.49194  0.76349  0.60026  Biso   1.000  O
  O36      1.0000 0.50806  0.73651  0.13738  Biso   1.000  O
  O37      1.0000 0.99194  0.25528  0.63738  Biso   1.000  O
  O38      1.0000 0.00806  0.24472  0.10026  Biso   1.000  O
  O39      1.0000 0.49194  0.25528  0.60026  Biso   1.000  O
  O40      1.0000 0.50806  0.24472  0.13738  Biso   1.000  O
  O41      1.0000 0.49194  0.75528  0.86262  Biso   1.000  O
  O42      1.0000 0.50806  0.74472  0.39974  Biso   1.000  O
  O43      1.0000 0.99194  0.75528  0.89974  Biso   1.000  O
  O44      1.0000 0.00806  0.74472  0.36262  Biso   1.000  O
  O45      1.0000 0.49194  0.26349  0.86262  Biso   1.000  O
  O46      1.0000 0.50806  0.23651  0.39974  Biso   1.000  O
  O47      1.0000 0.99194  0.26349  0.89974  Biso   1.000  O
  O48      1.0000 0.00806  0.23651  0.36262  Biso   1.000  O
  O49      1.0000 0.73651  0.50806  0.86262  Biso   1.000  O
  O50      1.0000 0.76349  0.49194  0.39974  Biso   1.000  O
  O51      1.0000 0.24472  0.50806  0.86262  Biso   1.000  O
  O52      1.0000 0.25528  0.49194  0.39974  Biso   1.000  O
  O53      1.0000 0.73651  0.00806  0.89974  Biso   1.000  O
  O54      1.0000 0.76349  0.99194  0.36262  Biso   1.000  O
  O55      1.0000 0.24472  0.00806  0.89974  Biso   1.000  O
  O56      1.0000 0.25528  0.99194  0.36262  Biso   1.000  O
  O57      1.0000 0.74472  0.50806  0.60026  Biso   1.000  O
  O58      1.0000 0.75528  0.49194  0.13738  Biso   1.000  O
  O59      1.0000 0.23651  0.50806  0.60026  Biso   1.000  O
  O60      1.0000 0.26349  0.49194  0.13738  Biso   1.000  O
  O61      1.0000 0.74472  0.00806  0.63738  Biso   1.000  O
  O62      1.0000 0.75528  0.99194  0.10026  Biso   1.000  O
  O63      1.0000 0.23651  0.00806  0.63738  Biso   1.000  O
  O64      1.0000 0.26349  0.99194  0.10026  Biso   1.000  O
  O65      1.0000 0.74875  0.76524  0.54813  Biso   1.000  O
  O66      1.0000 0.75125  0.73476  0.04813  Biso   1.000  O
  O67      1.0000 0.23476  0.76524  0.54813  Biso   1.000  O
  O68      1.0000 0.26524  0.73476  0.04813  Biso   1.000  O
  O69      1.0000 0.74875  0.25125  0.54813  Biso   1.000  O
  O70      1.0000 0.75125  0.24875  0.04813  Biso   1.000  O
  O71      1.0000 0.23476  0.25125  0.54813  Biso   1.000  O
  O72      1.0000 0.26524  0.24875  0.04813  Biso   1.000  O
  O73      1.0000 0.73476  0.75125  0.95187  Biso   1.000  O
  O74      1.0000 0.76524  0.74875  0.45187  Biso   1.000  O
  O75      1.0000 0.24875  0.75125  0.95187  Biso   1.000  O
  O76      1.0000 0.25125  0.74875  0.45187  Biso   1.000  O
  O77      1.0000 0.73476  0.26524  0.95187  Biso   1.000  O
  O78      1.0000 0.76524  0.23476  0.45187  Biso   1.000  O
  O79      1.0000 0.24875  0.26524  0.95187  Biso   1.000  O
  O80      1.0000 0.25125  0.23476  0.45187  Biso   1.000  O
