data_image0
_cell_length_a       16.1647
_cell_length_b       16.1647
_cell_length_c       16.1647
_cell_angle_alpha    151.885
_cell_angle_beta     151.885
_cell_angle_gamma    40.1819

_symmetry_space_group_name_H-M    "P 1"
_symmetry_int_tables_number       1

loop_
  _symmetry_equiv_pos_as_xyz
  'x, y, z'

loop_
  _atom_site_label
  _atom_site_occupancy
  _atom_site_fract_x
  _atom_site_fract_y
  _atom_site_fract_z
  _atom_site_thermal_displace_type
  _atom_site_B_iso_or_equiv
  _atom_site_type_symbol
  K1       1.0000 0.11811  0.11811  0.00000  Biso   1.000  K
  K2       1.0000 0.38189  0.38189  0.00000  Biso   1.000  K
  K3       1.0000 0.50000  0.00000  0.50000  Biso   1.000  K
  K4       1.0000 0.00000  0.50000  0.50000  Biso   1.000  K
  Pb1      1.0000 0.81864  0.81864  0.00000  Biso   1.000  Pb
  Pb2      1.0000 0.32810  0.32810  0.00000  Biso   1.000  Pb
  Pb3      1.0000 0.32337  0.82337  0.50000  Biso   1.000  Pb
  Pb4      1.0000 0.82337  0.32337  0.50000  Biso   1.000  Pb
  Pb5      1.0000 0.17663  0.67663  0.50000  Biso   1.000  Pb
  Pb6      1.0000 0.67663  0.17663  0.50000  Biso   1.000  Pb
  Pb7      1.0000 0.65818  0.65818  0.00000  Biso   1.000  Pb
  Pb8      1.0000 0.19508  0.19508  0.00000  Biso   1.000  Pb
  Nb1      1.0000 0.99821  0.99821  0.49642  Biso   1.000  Nb
  Nb2      1.0000 0.50179  0.50179  0.50358  Biso   1.000  Nb
  Nb3      1.0000 0.50179  0.99821  0.00000  Biso   1.000  Nb
  Nb4      1.0000 0.99821  0.50179  0.00000  Biso   1.000  Nb
  Ta1      1.0000 0.14771  0.14771  0.50827  Biso   1.000  Ta
  Ta2      1.0000 0.63945  0.63945  0.49173  Biso   1.000  Ta
  Ta3      1.0000 0.63945  0.14771  0.00000  Biso   1.000  Ta
  Ta4      1.0000 0.14771  0.63945  0.00000  Biso   1.000  Ta
  Ta5      1.0000 0.86281  0.86281  0.51278  Biso   1.000  Ta
  Ta6      1.0000 0.35003  0.35003  0.48722  Biso   1.000  Ta
  Ta7      1.0000 0.35003  0.86281  0.00000  Biso   1.000  Ta
  Ta8      1.0000 0.86281  0.35003  0.00000  Biso   1.000  Ta
  O1       1.0000 0.79304  0.04378  0.25074  Biso   1.000  O
  O2       1.0000 0.20696  0.45622  0.24926  Biso   1.000  O
  O3       1.0000 0.20696  0.95770  0.75074  Biso   1.000  O
  O4       1.0000 0.79304  0.54230  0.74926  Biso   1.000  O
  O5       1.0000 0.95770  0.20696  0.75074  Biso   1.000  O
  O6       1.0000 0.54230  0.79304  0.74926  Biso   1.000  O
  O7       1.0000 0.45622  0.20696  0.24926  Biso   1.000  O
  O8       1.0000 0.04378  0.79304  0.25074  Biso   1.000  O
  O9       1.0000 0.09271  0.09271  0.55517  Biso   1.000  O
  O10      1.0000 0.53753  0.53753  0.44483  Biso   1.000  O
  O11      1.0000 0.53753  0.09271  0.00000  Biso   1.000  O
  O12      1.0000 0.09271  0.53753  0.00000  Biso   1.000  O
  O13      1.0000 0.89529  0.89529  0.42083  Biso   1.000  O
  O14      1.0000 0.47447  0.47447  0.57917  Biso   1.000  O
  O15      1.0000 0.47447  0.89529  0.00000  Biso   1.000  O
  O16      1.0000 0.89529  0.47447  0.00000  Biso   1.000  O
  O17      1.0000 0.87513  0.12239  0.24726  Biso   1.000  O
  O18      1.0000 0.38723  0.63997  0.25274  Biso   1.000  O
  O19      1.0000 0.38723  0.13449  0.74726  Biso   1.000  O
  O20      1.0000 0.87513  0.62787  0.75274  Biso   1.000  O
  O21      1.0000 0.14988  0.90535  0.75547  Biso   1.000  O
  O22      1.0000 0.58776  0.33229  0.74453  Biso   1.000  O
  O23      1.0000 0.58776  0.84324  0.25547  Biso   1.000  O
  O24      1.0000 0.14988  0.39440  0.24453  Biso   1.000  O
  O25      1.0000 0.90535  0.14988  0.75547  Biso   1.000  O
  O26      1.0000 0.33229  0.58776  0.74453  Biso   1.000  O
  O27      1.0000 0.39440  0.14988  0.24453  Biso   1.000  O
  O28      1.0000 0.84324  0.58776  0.25547  Biso   1.000  O
  O29      1.0000 0.13449  0.38723  0.74726  Biso   1.000  O
  O30      1.0000 0.62787  0.87513  0.75274  Biso   1.000  O
  O31      1.0000 0.63997  0.38723  0.25274  Biso   1.000  O
  O32      1.0000 0.12239  0.87513  0.24726  Biso   1.000  O
  O33      1.0000 0.21766  0.21766  0.53159  Biso   1.000  O
  O34      1.0000 0.68608  0.68608  0.46841  Biso   1.000  O
  O35      1.0000 0.68608  0.21766  0.00000  Biso   1.000  O
  O36      1.0000 0.21766  0.68608  0.00000  Biso   1.000  O
  O37      1.0000 0.82792  0.82792  0.55957  Biso   1.000  O
  O38      1.0000 0.26834  0.26834  0.44043  Biso   1.000  O
  O39      1.0000 0.26834  0.82792  0.00000  Biso   1.000  O
  O40      1.0000 0.82792  0.26834  0.00000  Biso   1.000  O
