data_image0
_cell_length_a       7.8528
_cell_length_b       7.8528
_cell_length_c       16.1647
_cell_angle_alpha    104.058
_cell_angle_beta     104.058
_cell_angle_gamma    90

_symmetry_space_group_name_H-M    "P 1"
_symmetry_int_tables_number       1

loop_
  _symmetry_equiv_pos_as_xyz
  'x, y, z'

loop_
  _atom_site_label
  _atom_site_occupancy
  _atom_site_fract_x
  _atom_site_fract_y
  _atom_site_fract_z
  _atom_site_thermal_displace_type
  _atom_site_B_iso_or_equiv
  _atom_site_type_symbol
  K1       1.0000 0.36811  0.36811  0.73622  Biso   1.000  K
  K2       1.0000 0.63189  0.63189  0.26378  Biso   1.000  K
  K3       1.0000 0.75000  0.25000  0.50000  Biso   1.000  K
  K4       1.0000 0.25000  0.75000  0.50000  Biso   1.000  K
  Pb1      1.0000 0.06459  0.06459  0.16046  Biso   1.000  Pb
  Pb2      1.0000 0.55088  0.55088  0.13302  Biso   1.000  Pb
  Pb3      1.0000 0.58901  0.08901  0.14674  Biso   1.000  Pb
  Pb4      1.0000 0.08901  0.58901  0.14674  Biso   1.000  Pb
  Pb5      1.0000 0.41099  0.91099  0.85326  Biso   1.000  Pb
  Pb6      1.0000 0.91099  0.41099  0.85326  Biso   1.000  Pb
  Pb7      1.0000 0.93541  0.93541  0.83954  Biso   1.000  Pb
  Pb8      1.0000 0.44912  0.44912  0.86698  Biso   1.000  Pb
  Nb1      1.0000 0.75179  0.24821  0.00000  Biso   1.000  Nb
  Nb2      1.0000 0.24821  0.75179  0.00000  Biso   1.000  Nb
  Nb3      1.0000 0.24821  0.24821  0.00000  Biso   1.000  Nb
  Nb4      1.0000 0.75179  0.75179  0.00000  Biso   1.000  Nb
  Ta1      1.0000 0.89183  0.40235  0.28716  Biso   1.000  Ta
  Ta2      1.0000 0.40235  0.89183  0.28716  Biso   1.000  Ta
  Ta3      1.0000 0.39533  0.39533  0.28716  Biso   1.000  Ta
  Ta4      1.0000 0.88481  0.88481  0.28716  Biso   1.000  Ta
  Ta5      1.0000 0.59765  0.10817  0.71284  Biso   1.000  Ta
  Ta6      1.0000 0.10817  0.59765  0.71284  Biso   1.000  Ta
  Ta7      1.0000 0.11519  0.11519  0.71284  Biso   1.000  Ta
  Ta8      1.0000 0.60467  0.60467  0.71284  Biso   1.000  Ta
  O1       1.0000 0.02202  0.27276  0.04404  Biso   1.000  O
  O2       1.0000 0.52202  0.77128  0.04404  Biso   1.000  O
  O3       1.0000 0.47798  0.22872  0.95596  Biso   1.000  O
  O4       1.0000 0.97798  0.72724  0.95596  Biso   1.000  O
  O5       1.0000 0.77128  0.52202  0.04404  Biso   1.000  O
  O6       1.0000 0.27276  0.02202  0.04404  Biso   1.000  O
  O7       1.0000 0.22872  0.47798  0.95596  Biso   1.000  O
  O8       1.0000 0.72724  0.97798  0.95596  Biso   1.000  O
  O9       1.0000 0.80008  0.28809  0.13024  Biso   1.000  O
  O10      1.0000 0.28809  0.80008  0.13024  Biso   1.000  O
  O11      1.0000 0.33016  0.33016  0.13024  Biso   1.000  O
  O12      1.0000 0.84215  0.84215  0.13024  Biso   1.000  O
  O13      1.0000 0.71191  0.19992  0.86976  Biso   1.000  O
  O14      1.0000 0.19992  0.71191  0.86976  Biso   1.000  O
  O15      1.0000 0.15785  0.15785  0.86976  Biso   1.000  O
  O16      1.0000 0.66984  0.66984  0.86976  Biso   1.000  O
  O17      1.0000 0.13132  0.38269  0.26264  Biso   1.000  O
  O18      1.0000 0.60632  0.85495  0.21263  Biso   1.000  O
  O19      1.0000 0.63104  0.38241  0.26208  Biso   1.000  O
  O20      1.0000 0.15604  0.90468  0.31209  Biso   1.000  O
  O21      1.0000 0.39368  0.14505  0.78737  Biso   1.000  O
  O22      1.0000 0.86868  0.61731  0.73736  Biso   1.000  O
  O23      1.0000 0.84396  0.09532  0.68791  Biso   1.000  O
  O24      1.0000 0.36896  0.61759  0.73792  Biso   1.000  O
  O25      1.0000 0.61759  0.36896  0.73792  Biso   1.000  O
  O26      1.0000 0.09532  0.84396  0.68791  Biso   1.000  O
  O27      1.0000 0.14505  0.39368  0.78737  Biso   1.000  O
  O28      1.0000 0.61731  0.86868  0.73736  Biso   1.000  O
  O29      1.0000 0.85495  0.60632  0.21263  Biso   1.000  O
  O30      1.0000 0.38269  0.13132  0.26264  Biso   1.000  O
  O31      1.0000 0.38241  0.63104  0.26208  Biso   1.000  O
  O32      1.0000 0.90468  0.15604  0.31209  Biso   1.000  O
  O33      1.0000 0.94153  0.48711  0.40374  Biso   1.000  O
  O34      1.0000 0.48711  0.94153  0.40374  Biso   1.000  O
  O35      1.0000 0.46221  0.46221  0.40374  Biso   1.000  O
  O36      1.0000 0.91663  0.91663  0.40374  Biso   1.000  O
  O37      1.0000 0.51289  0.05847  0.59626  Biso   1.000  O
  O38      1.0000 0.05847  0.51289  0.59626  Biso   1.000  O
  O39      1.0000 0.08337  0.08337  0.59626  Biso   1.000  O
  O40      1.0000 0.53779  0.53779  0.59626  Biso   1.000  O
