data_image0
_cell_length_a       3.9264
_cell_length_b       15.6806
_cell_length_c       15.6806
_cell_angle_alpha    150.998
_cell_angle_beta     90
_cell_angle_gamma    90

_symmetry_space_group_name_H-M    "P 1"
_symmetry_int_tables_number       1

loop_
  _symmetry_equiv_pos_as_xyz
  'x, y, z'

loop_
  _atom_site_label
  _atom_site_occupancy
  _atom_site_fract_x
  _atom_site_fract_y
  _atom_site_fract_z
  _atom_site_thermal_displace_type
  _atom_site_B_iso_or_equiv
  _atom_site_type_symbol
  K1       1.0000 0.50000  0.55906  0.94094  Biso   1.000  K
  K2       1.0000 0.50000  0.94094  0.55906  Biso   1.000  K
  Pb1      1.0000 0.50000  0.30951  0.15592  Biso   1.000  Pb
  Pb2      1.0000 0.50000  0.80266  0.66277  Biso   1.000  Pb
  Pb3      1.0000 0.50000  0.66277  0.80266  Biso   1.000  Pb
  Pb4      1.0000 0.50000  0.15592  0.30951  Biso   1.000  Pb
  Nb1      1.0000 0.00000  0.98499  0.98499  Biso   1.000  Nb
  Nb2      1.0000 0.00000  0.48141  0.48141  Biso   1.000  Nb
  Ta1      1.0000 0.00000  0.15054  0.86338  Biso   1.000  Ta
  Ta2      1.0000 0.00000  0.66106  0.37390  Biso   1.000  Ta
  Ta3      1.0000 0.00000  0.86338  0.15054  Biso   1.000  Ta
  Ta4      1.0000 0.00000  0.37390  0.66106  Biso   1.000  Ta
  O1       1.0000 0.00000  0.26979  0.26979  Biso   1.000  O
  O2       1.0000 0.00000  0.76979  0.76979  Biso   1.000  O
  O3       1.0000 0.50000  0.04111  0.04111  Biso   1.000  O
  O4       1.0000 0.50000  0.54258  0.54258  Biso   1.000  O
  O5       1.0000 0.00000  0.09420  0.96396  Biso   1.000  O
  O6       1.0000 0.00000  0.58220  0.45196  Biso   1.000  O
  O7       1.0000 0.00000  0.96396  0.09420  Biso   1.000  O
  O8       1.0000 0.00000  0.45196  0.58220  Biso   1.000  O
  O9       1.0000 0.00000  0.40341  0.11605  Biso   1.000  O
  O10      1.0000 0.00000  0.87841  0.64105  Biso   1.000  O
  O11      1.0000 0.00000  0.64105  0.87841  Biso   1.000  O
  O12      1.0000 0.00000  0.11605  0.40341  Biso   1.000  O
  O13      1.0000 0.50000  0.88001  0.14237  Biso   1.000  O
  O14      1.0000 0.50000  0.38274  0.64510  Biso   1.000  O
  O15      1.0000 0.50000  0.14237  0.88001  Biso   1.000  O
  O16      1.0000 0.50000  0.64510  0.38274  Biso   1.000  O
  O17      1.0000 0.00000  0.18648  0.78274  Biso   1.000  O
  O18      1.0000 0.00000  0.73206  0.32832  Biso   1.000  O
  O19      1.0000 0.00000  0.78274  0.18648  Biso   1.000  O
  O20      1.0000 0.00000  0.32832  0.73206  Biso   1.000  O
