data_image0
_cell_length_a       16.1647
_cell_length_b       16.1647
_cell_length_c       7.8528
_cell_angle_alpha    104.058
_cell_angle_beta     104.058
_cell_angle_gamma    139.818

_symmetry_space_group_name_H-M    "P 1"
_symmetry_int_tables_number       1

loop_
  _symmetry_equiv_pos_as_xyz
  'x, y, z'

loop_
  _atom_site_label
  _atom_site_occupancy
  _atom_site_fract_x
  _atom_site_fract_y
  _atom_site_fract_z
  _atom_site_thermal_displace_type
  _atom_site_B_iso_or_equiv
  _atom_site_type_symbol
  K1       1.0000 0.19094  0.30906  0.00000  Biso   1.000  K
  K2       1.0000 0.80906  0.69094  0.00000  Biso   1.000  K
  K3       1.0000 0.30906  0.19094  0.50000  Biso   1.000  K
  K4       1.0000 0.69094  0.80906  0.50000  Biso   1.000  K
  Pb1      1.0000 0.40756  0.06116  0.00000  Biso   1.000  Pb
  Pb2      1.0000 0.91442  0.55430  0.00000  Biso   1.000  Pb
  Pb3      1.0000 0.44570  0.08558  0.50000  Biso   1.000  Pb
  Pb4      1.0000 0.93884  0.59244  0.50000  Biso   1.000  Pb
  Pb5      1.0000 0.55430  0.91442  0.50000  Biso   1.000  Pb
  Pb6      1.0000 0.06116  0.40756  0.50000  Biso   1.000  Pb
  Pb7      1.0000 0.59244  0.93884  1.00000  Biso   1.000  Pb
  Pb8      1.0000 0.08558  0.44570  0.00000  Biso   1.000  Pb
  Nb1      1.0000 0.75000  0.25000  0.00179  Biso   1.000  Nb
  Nb2      1.0000 0.25000  0.75000  0.99821  Biso   1.000  Nb
  Nb3      1.0000 0.75000  0.25000  0.49821  Biso   1.000  Nb
  Nb4      1.0000 0.25000  0.75000  0.50179  Biso   1.000  Nb
  Ta1      1.0000 0.60291  0.39007  0.99474  Biso   1.000  Ta
  Ta2      1.0000 0.10291  0.89007  0.00526  Biso   1.000  Ta
  Ta3      1.0000 0.60993  0.39709  0.50526  Biso   1.000  Ta
  Ta4      1.0000 0.10993  0.89709  0.49474  Biso   1.000  Ta
  Ta5      1.0000 0.89709  0.10993  0.99474  Biso   1.000  Ta
  Ta6      1.0000 0.39709  0.60993  0.00526  Biso   1.000  Ta
  Ta7      1.0000 0.89007  0.10291  0.50526  Biso   1.000  Ta
  Ta8      1.0000 0.39007  0.60291  0.49474  Biso   1.000  Ta
  O1       1.0000 0.72798  0.27202  0.25000  Biso   1.000  O
  O2       1.0000 0.22798  0.77202  0.25000  Biso   1.000  O
  O3       1.0000 0.77202  0.22798  0.75000  Biso   1.000  O
  O4       1.0000 0.27202  0.72798  0.75000  Biso   1.000  O
  O5       1.0000 0.02202  0.47798  0.24926  Biso   1.000  O
  O6       1.0000 0.52202  0.97798  0.25074  Biso   1.000  O
  O7       1.0000 0.97798  0.52202  0.75074  Biso   1.000  O
  O8       1.0000 0.47798  0.02202  0.74926  Biso   1.000  O
  O9       1.0000 0.70591  0.33615  0.00600  Biso   1.000  O
  O10      1.0000 0.20591  0.83615  0.99400  Biso   1.000  O
  O11      1.0000 0.66385  0.29409  0.49400  Biso   1.000  O
  O12      1.0000 0.16385  0.79409  0.50600  Biso   1.000  O
  O13      1.0000 0.79409  0.16385  0.00600  Biso   1.000  O
  O14      1.0000 0.29409  0.66385  0.99400  Biso   1.000  O
  O15      1.0000 0.83615  0.20591  0.49400  Biso   1.000  O
  O16      1.0000 0.33615  0.70591  0.50600  Biso   1.000  O
  O17      1.0000 0.61868  0.38132  0.25000  Biso   1.000  O
  O18      1.0000 0.14368  0.85632  0.25000  Biso   1.000  O
  O19      1.0000 0.61896  0.38104  0.75000  Biso   1.000  O
  O20      1.0000 0.09396  0.90604  0.75000  Biso   1.000  O
  O21      1.0000 0.85632  0.14368  0.75000  Biso   1.000  O
  O22      1.0000 0.38132  0.61868  0.75000  Biso   1.000  O
  O23      1.0000 0.90604  0.09396  0.25000  Biso   1.000  O
  O24      1.0000 0.38104  0.61896  0.25000  Biso   1.000  O
  O25      1.0000 0.11882  0.38118  0.24863  Biso   1.000  O
  O26      1.0000 0.61882  0.88118  0.25137  Biso   1.000  O
  O27      1.0000 0.14354  0.35646  0.75137  Biso   1.000  O
  O28      1.0000 0.64354  0.85646  0.74863  Biso   1.000  O
  O29      1.0000 0.85646  0.64354  0.24863  Biso   1.000  O
  O30      1.0000 0.35646  0.14354  0.25137  Biso   1.000  O
  O31      1.0000 0.88118  0.61882  0.75137  Biso   1.000  O
  O32      1.0000 0.38118  0.11882  0.74863  Biso   1.000  O
  O33      1.0000 0.53568  0.43942  0.97721  Biso   1.000  O
  O34      1.0000 0.03568  0.93942  0.02279  Biso   1.000  O
  O35      1.0000 0.56058  0.46432  0.52279  Biso   1.000  O
  O36      1.0000 0.06058  0.96432  0.47721  Biso   1.000  O
  O37      1.0000 0.96432  0.06058  0.97721  Biso   1.000  O
  O38      1.0000 0.46432  0.56058  0.02279  Biso   1.000  O
  O39      1.0000 0.93942  0.03568  0.52279  Biso   1.000  O
  O40      1.0000 0.43942  0.53568  0.47721  Biso   1.000  O
