data_image0
_cell_length_a       16.1647
_cell_length_b       16.1647
_cell_length_c       16.1647
_cell_angle_alpha    151.885
_cell_angle_beta     151.885
_cell_angle_gamma    40.1819

_symmetry_space_group_name_H-M    "P 1"
_symmetry_int_tables_number       1

loop_
  _symmetry_equiv_pos_as_xyz
  'x, y, z'

loop_
  _atom_site_label
  _atom_site_occupancy
  _atom_site_fract_x
  _atom_site_fract_y
  _atom_site_fract_z
  _atom_site_thermal_displace_type
  _atom_site_B_iso_or_equiv
  _atom_site_type_symbol
  K1       1.0000 0.38189  0.38189  0.00000  Biso   1.000  K
  K2       1.0000 0.11811  0.11811  0.00000  Biso   1.000  K
  K3       1.0000 0.50000  0.00000  0.50000  Biso   1.000  K
  K4       1.0000 0.00000  0.50000  0.50000  Biso   1.000  K
  Pb1      1.0000 0.67557  0.67557  0.00000  Biso   1.000  Pb
  Pb2      1.0000 0.17769  0.17769  0.00000  Biso   1.000  Pb
  Pb3      1.0000 0.67083  0.17083  0.50000  Biso   1.000  Pb
  Pb4      1.0000 0.18243  0.68243  0.50000  Biso   1.000  Pb
  Pb5      1.0000 0.81757  0.31757  0.50000  Biso   1.000  Pb
  Pb6      1.0000 0.32917  0.82917  0.50000  Biso   1.000  Pb
  Pb7      1.0000 0.83602  0.83602  0.00000  Biso   1.000  Pb
  Pb8      1.0000 0.31072  0.31072  0.00000  Biso   1.000  Pb
  Nb1      1.0000 0.99821  0.99821  0.49642  Biso   1.000  Nb
  Nb2      1.0000 0.50179  0.50179  0.50358  Biso   1.000  Nb
  Nb3      1.0000 0.99821  0.50179  0.00000  Biso   1.000  Nb
  Nb4      1.0000 0.50179  0.99821  1.00000  Biso   1.000  Nb
  Ta1      1.0000 0.86168  0.86055  0.50940  Biso   1.000  Ta
  Ta2      1.0000 0.35116  0.35229  0.49060  Biso   1.000  Ta
  Ta3      1.0000 0.86168  0.35229  0.00113  Biso   1.000  Ta
  Ta4      1.0000 0.35116  0.86055  0.99887  Biso   1.000  Ta
  Ta5      1.0000 0.14884  0.14997  0.51165  Biso   1.000  Ta
  Ta6      1.0000 0.63832  0.63719  0.48835  Biso   1.000  Ta
  Ta7      1.0000 0.14884  0.63719  0.99887  Biso   1.000  Ta
  Ta8      1.0000 0.63832  0.14997  0.00113  Biso   1.000  Ta
  O1       1.0000 0.95770  0.70696  0.25074  Biso   1.000  O
  O2       1.0000 0.54230  0.29304  0.24926  Biso   1.000  O
  O3       1.0000 0.04378  0.29304  0.75074  Biso   1.000  O
  O4       1.0000 0.45622  0.70696  0.74926  Biso   1.000  O
  O5       1.0000 0.25000  0.00074  0.75074  Biso   1.000  O
  O6       1.0000 0.75000  0.49926  0.74926  Biso   1.000  O
  O7       1.0000 0.25000  0.49926  0.24926  Biso   1.000  O
  O8       1.0000 0.75000  0.00074  0.25074  Biso   1.000  O
  O9       1.0000 0.92888  0.96247  0.52159  Biso   1.000  O
  O10      1.0000 0.44088  0.40729  0.47841  Biso   1.000  O
  O11      1.0000 0.92888  0.40729  0.96641  Biso   1.000  O
  O12      1.0000 0.44088  0.96247  0.03359  Biso   1.000  O
  O13      1.0000 0.05912  0.02553  0.45441  Biso   1.000  O
  O14      1.0000 0.57112  0.60471  0.54559  Biso   1.000  O
  O15      1.0000 0.05912  0.60471  0.03359  Biso   1.000  O
  O16      1.0000 0.57112  0.02553  0.96641  Biso   1.000  O
  O17      1.0000 0.87624  0.62487  0.25137  Biso   1.000  O
  O18      1.0000 0.36140  0.11277  0.24863  Biso   1.000  O
  O19      1.0000 0.86413  0.11277  0.75137  Biso   1.000  O
  O20      1.0000 0.37351  0.62487  0.74863  Biso   1.000  O
  O21      1.0000 0.10149  0.35012  0.75137  Biso   1.000  O
  O22      1.0000 0.66087  0.91224  0.74863  Biso   1.000  O
  O23      1.0000 0.16360  0.91224  0.25137  Biso   1.000  O
  O24      1.0000 0.59876  0.35012  0.24863  Biso   1.000  O
  O25      1.0000 0.36868  0.12415  0.75547  Biso   1.000  O
  O26      1.0000 0.89368  0.63821  0.74453  Biso   1.000  O
  O27      1.0000 0.36868  0.61321  0.24453  Biso   1.000  O
  O28      1.0000 0.89368  0.14915  0.25547  Biso   1.000  O
  O29      1.0000 0.13132  0.87858  0.74726  Biso   1.000  O
  O30      1.0000 0.60632  0.35906  0.75274  Biso   1.000  O
  O31      1.0000 0.13132  0.38406  0.25274  Biso   1.000  O
  O32      1.0000 0.60632  0.85358  0.24726  Biso   1.000  O
  O33      1.0000 0.82092  0.81392  0.53858  Biso   1.000  O
  O34      1.0000 0.27534  0.28234  0.46142  Biso   1.000  O
  O35      1.0000 0.82092  0.28234  0.00700  Biso   1.000  O
  O36      1.0000 0.27534  0.81392  0.99300  Biso   1.000  O
  O37      1.0000 0.22466  0.23166  0.55258  Biso   1.000  O
  O38      1.0000 0.67908  0.67208  0.44742  Biso   1.000  O
  O39      1.0000 0.22466  0.67208  0.99300  Biso   1.000  O
  O40      1.0000 0.67908  0.23166  0.00700  Biso   1.000  O
