data_image0
_cell_length_a       16.1647
_cell_length_b       16.1647
_cell_length_c       16.1647
_cell_angle_alpha    151.885
_cell_angle_beta     40.1819
_cell_angle_gamma    151.885

_symmetry_space_group_name_H-M    "P 1"
_symmetry_int_tables_number       1

loop_
  _symmetry_equiv_pos_as_xyz
  'x, y, z'

loop_
  _atom_site_label
  _atom_site_occupancy
  _atom_site_fract_x
  _atom_site_fract_y
  _atom_site_fract_z
  _atom_site_thermal_displace_type
  _atom_site_B_iso_or_equiv
  _atom_site_type_symbol
  K1       1.0000 0.36811  0.50000  0.86811  Biso   1.000  K
  K2       1.0000 0.63189  0.50000  0.13189  Biso   1.000  K
  K3       1.0000 0.25000  0.00000  0.25000  Biso   1.000  K
  K4       1.0000 0.75000  0.00000  0.75000  Biso   1.000  K
  Pb1      1.0000 0.09751  0.51729  0.58023  Biso   1.000  Pb
  Pb2      1.0000 0.58380  0.51729  0.06651  Biso   1.000  Pb
  Pb3      1.0000 0.09066  0.01729  0.07337  Biso   1.000  Pb
  Pb4      1.0000 0.59066  0.01729  0.57337  Biso   1.000  Pb
  Pb5      1.0000 0.94392  0.01729  0.92663  Biso   1.000  Pb
  Pb6      1.0000 0.44392  0.01729  0.42663  Biso   1.000  Pb
  Pb7      1.0000 0.93706  0.51729  0.41977  Biso   1.000  Pb
  Pb8      1.0000 0.45077  0.51729  0.93349  Biso   1.000  Pb
  Nb1      1.0000 0.26501  0.01322  0.74821  Biso   1.000  Nb
  Nb2      1.0000 0.76859  0.02038  0.25179  Biso   1.000  Nb
  Nb3      1.0000 0.26501  0.51680  0.25179  Biso   1.000  Nb
  Nb4      1.0000 0.76859  0.51680  0.74821  Biso   1.000  Nb
  Ta1      1.0000 0.38662  0.99831  0.89884  Biso   1.000  Ta
  Ta2      1.0000 0.87610  0.97726  0.38832  Biso   1.000  Ta
  Ta3      1.0000 0.38662  0.48778  0.38832  Biso   1.000  Ta
  Ta4      1.0000 0.87610  0.48778  0.89884  Biso   1.000  Ta
  Ta5      1.0000 0.09946  0.99831  0.61168  Biso   1.000  Ta
  Ta6      1.0000 0.58894  0.97726  0.10116  Biso   1.000  Ta
  Ta7      1.0000 0.09946  0.48778  0.10116  Biso   1.000  Ta
  Ta8      1.0000 0.58894  0.48778  0.61168  Biso   1.000  Ta
  O1       1.0000 0.20889  0.70889  0.50000  Biso   1.000  O
  O2       1.0000 0.70742  0.70742  0.00000  Biso   1.000  O
  O3       1.0000 0.20889  0.20889  0.00000  Biso   1.000  O
  O4       1.0000 0.70742  0.20742  0.50000  Biso   1.000  O
  O5       1.0000 0.48021  0.23095  0.75074  Biso   1.000  O
  O6       1.0000 0.98021  0.22948  0.24926  Biso   1.000  O
  O7       1.0000 0.48021  0.72948  0.24926  Biso   1.000  O
  O8       1.0000 0.98021  0.73095  0.75074  Biso   1.000  O
  O9       1.0000 0.28604  0.96492  0.80912  Biso   1.000  O
  O10      1.0000 0.79804  0.98892  0.32112  Biso   1.000  O
  O11      1.0000 0.28604  0.47692  0.32112  Biso   1.000  O
  O12      1.0000 0.79804  0.47692  0.80912  Biso   1.000  O
  O13      1.0000 0.15580  0.96492  0.67888  Biso   1.000  O
  O14      1.0000 0.66780  0.98892  0.19088  Biso   1.000  O
  O15      1.0000 0.15580  0.47692  0.19088  Biso   1.000  O
  O16      1.0000 0.66780  0.47692  0.67888  Biso   1.000  O
  O17      1.0000 0.38250  0.73881  0.64368  Biso   1.000  O
  O18      1.0000 0.85476  0.73608  0.11868  Biso   1.000  O
  O19      1.0000 0.35749  0.23881  0.11868  Biso   1.000  O
  O20      1.0000 0.87976  0.23608  0.64368  Biso   1.000  O
  O21      1.0000 0.12014  0.23881  0.88132  Biso   1.000  O
  O22      1.0000 0.59240  0.23608  0.35632  Biso   1.000  O
  O23      1.0000 0.09513  0.73881  0.35632  Biso   1.000  O
  O24      1.0000 0.61740  0.73608  0.88132  Biso   1.000  O
  O25      1.0000 0.37159  0.24164  0.63269  Biso   1.000  O
  O26      1.0000 0.84659  0.23891  0.10495  Biso   1.000  O
  O27      1.0000 0.37159  0.73891  0.12996  Biso   1.000  O
  O28      1.0000 0.84659  0.74164  0.60768  Biso   1.000  O
  O29      1.0000 0.60895  0.24164  0.87004  Biso   1.000  O
  O30      1.0000 0.13395  0.23891  0.39232  Biso   1.000  O
  O31      1.0000 0.60895  0.73891  0.36731  Biso   1.000  O
  O32      1.0000 0.13395  0.74164  0.89505  Biso   1.000  O
  O33      1.0000 0.46726  0.03818  0.97466  Biso   1.000  O
  O34      1.0000 0.92168  0.94702  0.42908  Biso   1.000  O
  O35      1.0000 0.46726  0.49260  0.42908  Biso   1.000  O
  O36      1.0000 0.92168  0.49260  0.97466  Biso   1.000  O
  O37      1.0000 0.06352  0.03818  0.57092  Biso   1.000  O
  O38      1.0000 0.51794  0.94702  0.02534  Biso   1.000  O
  O39      1.0000 0.06352  0.49260  0.02534  Biso   1.000  O
  O40      1.0000 0.51794  0.49260  0.57092  Biso   1.000  O
