data_image0
_cell_length_a       16.1647
_cell_length_b       7.8528
_cell_length_c       16.1647
_cell_angle_alpha    75.9423
_cell_angle_beta     28.1154
_cell_angle_gamma    75.9423

_symmetry_space_group_name_H-M    "P 1"
_symmetry_int_tables_number       1

loop_
  _symmetry_equiv_pos_as_xyz
  'x, y, z'

loop_
  _atom_site_label
  _atom_site_occupancy
  _atom_site_fract_x
  _atom_site_fract_y
  _atom_site_fract_z
  _atom_site_thermal_displace_type
  _atom_site_B_iso_or_equiv
  _atom_site_type_symbol
  K1       1.0000 0.65575  0.91953  0.08047  Biso   1.000  K
  K2       1.0000 0.91953  0.65575  0.34425  Biso   1.000  K
  K3       1.0000 0.96236  0.96236  0.53764  Biso   1.000  K
  K4       1.0000 0.46236  0.46236  0.03764  Biso   1.000  K
  Pb1      1.0000 0.31780  0.15735  0.84265  Biso   1.000  Pb
  Pb2      1.0000 0.80409  0.67106  0.32894  Biso   1.000  Pb
  Pb3      1.0000 0.83580  0.18906  0.31094  Biso   1.000  Pb
  Pb4      1.0000 0.33580  0.68906  0.81094  Biso   1.000  Pb
  Pb5      1.0000 0.68906  0.33580  0.16420  Biso   1.000  Pb
  Pb6      1.0000 0.18906  0.83580  0.66420  Biso   1.000  Pb
  Pb7      1.0000 0.15735  0.31780  0.68220  Biso   1.000  Pb
  Pb8      1.0000 0.67106  0.80409  0.19591  Biso   1.000  Pb
  Nb1      1.0000 0.00148  0.49790  0.99852  Biso   1.000  Nb
  Nb2      1.0000 0.49790  0.00148  0.50210  Biso   1.000  Nb
  Nb3      1.0000 0.49852  0.49852  0.50148  Biso   1.000  Nb
  Nb4      1.0000 0.00210  0.00210  0.99790  Biso   1.000  Nb
  Ta1      1.0000 0.14414  0.36750  0.14302  Biso   1.000  Ta
  Ta2      1.0000 0.65466  0.85698  0.63250  Biso   1.000  Ta
  Ta3      1.0000 0.64302  0.35586  0.64414  Biso   1.000  Ta
  Ta4      1.0000 0.13250  0.84534  0.15466  Biso   1.000  Ta
  Ta5      1.0000 0.85698  0.65466  0.85586  Biso   1.000  Ta
  Ta6      1.0000 0.36750  0.14414  0.34534  Biso   1.000  Ta
  Ta7      1.0000 0.35586  0.64302  0.35698  Biso   1.000  Ta
  Ta8      1.0000 0.84534  0.13250  0.86750  Biso   1.000  Ta
  O1       1.0000 0.25000  0.50074  0.75000  Biso   1.000  O
  O2       1.0000 0.75000  0.99926  0.25000  Biso   1.000  O
  O3       1.0000 0.75000  0.50074  0.25000  Biso   1.000  O
  O4       1.0000 0.25000  0.99926  0.75000  Biso   1.000  O
  O5       1.0000 0.99926  0.75000  0.00074  Biso   1.000  O
  O6       1.0000 0.50074  0.25000  0.49926  Biso   1.000  O
  O7       1.0000 0.50074  0.75000  0.49926  Biso   1.000  O
  O8       1.0000 0.99926  0.25000  0.00074  Biso   1.000  O
  O9       1.0000 0.06535  0.42311  0.06489  Biso   1.000  O
  O10      1.0000 0.55335  0.93511  0.57689  Biso   1.000  O
  O11      1.0000 0.56489  0.43465  0.56535  Biso   1.000  O
  O12      1.0000 0.07689  0.94665  0.05335  Biso   1.000  O
  O13      1.0000 0.93511  0.55335  0.93465  Biso   1.000  O
  O14      1.0000 0.42311  0.06535  0.44665  Biso   1.000  O
  O15      1.0000 0.43465  0.56489  0.43511  Biso   1.000  O
  O16      1.0000 0.94665  0.07689  0.92311  Biso   1.000  O
  O17      1.0000 0.38499  0.36638  0.88499  Biso   1.000  O
  O18      1.0000 0.85999  0.88865  0.35999  Biso   1.000  O
  O19      1.0000 0.87737  0.37400  0.37737  Biso   1.000  O
  O20      1.0000 0.40237  0.84626  0.90237  Biso   1.000  O
  O21      1.0000 0.62263  0.62874  0.12263  Biso   1.000  O
  O22      1.0000 0.09763  0.15101  0.59763  Biso   1.000  O
  O23      1.0000 0.11501  0.63636  0.61501  Biso   1.000  O
  O24      1.0000 0.64001  0.10862  0.14001  Biso   1.000  O
  O25      1.0000 0.88865  0.85999  0.89138  Biso   1.000  O
  O26      1.0000 0.36638  0.38499  0.36364  Biso   1.000  O
  O27      1.0000 0.37400  0.87737  0.37126  Biso   1.000  O
  O28      1.0000 0.84626  0.40237  0.84899  Biso   1.000  O
  O29      1.0000 0.10862  0.64001  0.11135  Biso   1.000  O
  O30      1.0000 0.63636  0.11501  0.63362  Biso   1.000  O
  O31      1.0000 0.62874  0.62263  0.62600  Biso   1.000  O
  O32      1.0000 0.15101  0.09763  0.15374  Biso   1.000  O
  O33      1.0000 0.19472  0.33655  0.20902  Biso   1.000  O
  O34      1.0000 0.74029  0.79098  0.66345  Biso   1.000  O
  O35      1.0000 0.70902  0.30528  0.69472  Biso   1.000  O
  O36      1.0000 0.16345  0.75971  0.24029  Biso   1.000  O
  O37      1.0000 0.79098  0.74029  0.80528  Biso   1.000  O
  O38      1.0000 0.33655  0.19472  0.25971  Biso   1.000  O
  O39      1.0000 0.30528  0.70902  0.29098  Biso   1.000  O
  O40      1.0000 0.75971  0.16345  0.83655  Biso   1.000  O
