data_image0
_cell_length_a       7.8528
_cell_length_b       30.3622
_cell_length_c       7.8528
_cell_angle_alpha    90
_cell_angle_beta     90
_cell_angle_gamma    90

_symmetry_space_group_name_H-M    "P 1"
_symmetry_int_tables_number       1

loop_
  _symmetry_equiv_pos_as_xyz
  'x, y, z'

loop_
  _atom_site_label
  _atom_site_occupancy
  _atom_site_fract_x
  _atom_site_fract_y
  _atom_site_fract_z
  _atom_site_thermal_displace_type
  _atom_site_B_iso_or_equiv
  _atom_site_type_symbol
  K1       1.0000 0.09893  0.36811  0.00000  Biso   1.000  K
  K2       1.0000 0.90107  0.63189  0.00000  Biso   1.000  K
  K3       1.0000 0.59893  0.25000  0.00000  Biso   1.000  K
  K4       1.0000 0.40107  0.75000  0.00000  Biso   1.000  K
  K5       1.0000 0.09893  0.25000  0.50000  Biso   1.000  K
  K6       1.0000 0.90107  0.75000  0.50000  Biso   1.000  K
  K7       1.0000 0.59893  0.13189  0.50000  Biso   1.000  K
  K8       1.0000 0.40107  0.86811  0.50000  Biso   1.000  K
  Pb1      1.0000 0.99811  0.08023  0.00000  Biso   1.000  Pb
  Pb2      1.0000 0.00189  0.56651  0.00000  Biso   1.000  Pb
  Pb3      1.0000 0.49811  0.07337  0.00000  Biso   1.000  Pb
  Pb4      1.0000 0.50189  0.57337  0.00000  Biso   1.000  Pb
  Pb5      1.0000 0.99811  0.07337  0.50000  Biso   1.000  Pb
  Pb6      1.0000 0.00189  0.57337  0.50000  Biso   1.000  Pb
  Pb7      1.0000 0.49811  0.06651  0.50000  Biso   1.000  Pb
  Pb8      1.0000 0.50189  0.58023  0.50000  Biso   1.000  Pb
  Pb9      1.0000 0.50189  0.92663  0.00000  Biso   1.000  Pb
  Pb10     1.0000 0.49811  0.42663  0.00000  Biso   1.000  Pb
  Pb11     1.0000 0.00189  0.91977  0.00000  Biso   1.000  Pb
  Pb12     1.0000 0.99811  0.43349  0.00000  Biso   1.000  Pb
  Pb13     1.0000 0.50189  0.93349  0.50000  Biso   1.000  Pb
  Pb14     1.0000 0.49811  0.41977  0.50000  Biso   1.000  Pb
  Pb15     1.0000 0.00189  0.92663  0.50000  Biso   1.000  Pb
  Pb16     1.0000 0.99811  0.42663  0.50000  Biso   1.000  Pb
  Nb1      1.0000 0.75179  0.00000  0.75179  Biso   1.000  Nb
  Nb2      1.0000 0.74821  0.50000  0.74821  Biso   1.000  Nb
  Nb3      1.0000 0.24821  0.00000  0.75179  Biso   1.000  Nb
  Nb4      1.0000 0.25179  0.50000  0.74821  Biso   1.000  Nb
  Nb5      1.0000 0.75179  0.00000  0.24821  Biso   1.000  Nb
  Nb6      1.0000 0.74821  0.50000  0.25179  Biso   1.000  Nb
  Nb7      1.0000 0.24821  0.00000  0.24821  Biso   1.000  Nb
  Nb8      1.0000 0.25179  0.50000  0.25179  Biso   1.000  Nb
  Ta1      1.0000 0.73921  0.14358  0.74474  Biso   1.000  Ta
  Ta2      1.0000 0.76079  0.64358  0.75526  Biso   1.000  Ta
  Ta3      1.0000 0.24973  0.14358  0.74474  Biso   1.000  Ta
  Ta4      1.0000 0.25027  0.64358  0.75526  Biso   1.000  Ta
  Ta5      1.0000 0.73921  0.14358  0.25526  Biso   1.000  Ta
  Ta6      1.0000 0.76079  0.64358  0.24474  Biso   1.000  Ta
  Ta7      1.0000 0.24973  0.14358  0.25526  Biso   1.000  Ta
  Ta8      1.0000 0.25027  0.64358  0.24474  Biso   1.000  Ta
  Ta9      1.0000 0.75027  0.85642  0.74474  Biso   1.000  Ta
  Ta10     1.0000 0.74973  0.35642  0.75526  Biso   1.000  Ta
  Ta11     1.0000 0.26079  0.85642  0.74474  Biso   1.000  Ta
  Ta12     1.0000 0.23921  0.35642  0.75526  Biso   1.000  Ta
  Ta13     1.0000 0.75027  0.85642  0.25526  Biso   1.000  Ta
  Ta14     1.0000 0.74973  0.35642  0.24474  Biso   1.000  Ta
  Ta15     1.0000 0.26079  0.85642  0.25526  Biso   1.000  Ta
  Ta16     1.0000 0.23921  0.35642  0.24474  Biso   1.000  Ta
  O1       1.0000 0.00000  0.00000  0.74926  Biso   1.000  O
  O2       1.0000 0.00000  0.50000  0.75074  Biso   1.000  O
  O3       1.0000 0.50000  0.00000  0.74926  Biso   1.000  O
  O4       1.0000 0.50000  0.50000  0.75074  Biso   1.000  O
  O5       1.0000 0.00000  0.00000  0.25074  Biso   1.000  O
  O6       1.0000 0.00000  0.50000  0.24926  Biso   1.000  O
  O7       1.0000 0.50000  0.00000  0.25074  Biso   1.000  O
  O8       1.0000 0.50000  0.50000  0.24926  Biso   1.000  O
  O9       1.0000 0.74926  0.00000  0.50000  Biso   1.000  O
  O10      1.0000 0.75074  0.50000  0.50000  Biso   1.000  O
  O11      1.0000 0.25074  0.00000  0.50000  Biso   1.000  O
  O12      1.0000 0.24926  0.50000  0.50000  Biso   1.000  O
  O13      1.0000 0.74926  0.00000  0.00000  Biso   1.000  O
  O14      1.0000 0.75074  0.50000  0.00000  Biso   1.000  O
  O15      1.0000 0.25074  0.00000  0.00000  Biso   1.000  O
  O16      1.0000 0.24926  0.50000  0.00000  Biso   1.000  O
  O17      1.0000 0.75476  0.06512  0.75600  Biso   1.000  O
  O18      1.0000 0.74524  0.56512  0.74400  Biso   1.000  O
  O19      1.0000 0.24276  0.06512  0.75600  Biso   1.000  O
  O20      1.0000 0.25724  0.56512  0.74400  Biso   1.000  O
  O21      1.0000 0.75476  0.06512  0.24400  Biso   1.000  O
  O22      1.0000 0.74524  0.56512  0.25600  Biso   1.000  O
  O23      1.0000 0.24276  0.06512  0.24400  Biso   1.000  O
  O24      1.0000 0.25724  0.56512  0.25600  Biso   1.000  O
  O25      1.0000 0.75724  0.93488  0.75600  Biso   1.000  O
  O26      1.0000 0.74276  0.43488  0.74400  Biso   1.000  O
  O27      1.0000 0.24524  0.93488  0.75600  Biso   1.000  O
  O28      1.0000 0.25476  0.43488  0.74400  Biso   1.000  O
  O29      1.0000 0.75724  0.93488  0.24400  Biso   1.000  O
  O30      1.0000 0.74276  0.43488  0.25600  Biso   1.000  O
  O31      1.0000 0.24524  0.93488  0.24400  Biso   1.000  O
  O32      1.0000 0.25476  0.43488  0.25600  Biso   1.000  O
  O33      1.0000 0.99807  0.14368  0.74863  Biso   1.000  O
  O34      1.0000 0.00193  0.61868  0.75137  Biso   1.000  O
  O35      1.0000 0.49807  0.11868  0.74863  Biso   1.000  O
  O36      1.0000 0.50193  0.64368  0.75137  Biso   1.000  O
  O37      1.0000 0.99807  0.14368  0.25137  Biso   1.000  O
  O38      1.0000 0.00193  0.61868  0.24863  Biso   1.000  O
  O39      1.0000 0.49807  0.11868  0.25137  Biso   1.000  O
  O40      1.0000 0.50193  0.64368  0.24863  Biso   1.000  O
  O41      1.0000 0.50193  0.88132  0.74863  Biso   1.000  O
  O42      1.0000 0.49807  0.35632  0.75137  Biso   1.000  O
  O43      1.0000 0.00193  0.85632  0.74863  Biso   1.000  O
  O44      1.0000 0.99807  0.38132  0.75137  Biso   1.000  O
  O45      1.0000 0.50193  0.88132  0.25137  Biso   1.000  O
  O46      1.0000 0.49807  0.35632  0.24863  Biso   1.000  O
  O47      1.0000 0.00193  0.85632  0.25137  Biso   1.000  O
  O48      1.0000 0.99807  0.38132  0.24863  Biso   1.000  O
  O49      1.0000 0.75059  0.88132  0.50000  Biso   1.000  O
  O50      1.0000 0.74941  0.35632  0.50000  Biso   1.000  O
  O51      1.0000 0.25332  0.88132  0.50000  Biso   1.000  O
  O52      1.0000 0.24668  0.35632  0.50000  Biso   1.000  O
  O53      1.0000 0.75059  0.85632  0.00000  Biso   1.000  O
  O54      1.0000 0.74941  0.38132  0.00000  Biso   1.000  O
  O55      1.0000 0.25332  0.85632  0.00000  Biso   1.000  O
  O56      1.0000 0.24668  0.38132  0.00000  Biso   1.000  O
  O57      1.0000 0.74668  0.11868  0.50000  Biso   1.000  O
  O58      1.0000 0.75332  0.64368  0.50000  Biso   1.000  O
  O59      1.0000 0.24941  0.11868  0.50000  Biso   1.000  O
  O60      1.0000 0.25059  0.64368  0.50000  Biso   1.000  O
  O61      1.0000 0.74668  0.14368  0.00000  Biso   1.000  O
  O62      1.0000 0.75332  0.61868  0.00000  Biso   1.000  O
  O63      1.0000 0.24941  0.14368  0.00000  Biso   1.000  O
  O64      1.0000 0.25059  0.61868  0.00000  Biso   1.000  O
  O65      1.0000 0.71919  0.20187  0.72721  Biso   1.000  O
  O66      1.0000 0.78081  0.70187  0.77279  Biso   1.000  O
  O67      1.0000 0.26477  0.20187  0.72721  Biso   1.000  O
  O68      1.0000 0.23523  0.70187  0.77279  Biso   1.000  O
  O69      1.0000 0.71919  0.20187  0.27279  Biso   1.000  O
  O70      1.0000 0.78081  0.70187  0.22721  Biso   1.000  O
  O71      1.0000 0.26477  0.20187  0.27279  Biso   1.000  O
  O72      1.0000 0.23523  0.70187  0.22721  Biso   1.000  O
  O73      1.0000 0.73523  0.79813  0.72721  Biso   1.000  O
  O74      1.0000 0.76477  0.29813  0.77279  Biso   1.000  O
  O75      1.0000 0.28081  0.79813  0.72721  Biso   1.000  O
  O76      1.0000 0.21919  0.29813  0.77279  Biso   1.000  O
  O77      1.0000 0.73523  0.79813  0.27279  Biso   1.000  O
  O78      1.0000 0.76477  0.29813  0.22721  Biso   1.000  O
  O79      1.0000 0.28081  0.79813  0.27279  Biso   1.000  O
  O80      1.0000 0.21919  0.29813  0.22721  Biso   1.000  O
