data_image0
_cell_length_a       15.1811
_cell_length_b       7.8528
_cell_length_c       7.8528
_cell_angle_alpha    90
_cell_angle_beta     90
_cell_angle_gamma    90

_symmetry_space_group_name_H-M    "P 1"
_symmetry_int_tables_number       1

loop_
  _symmetry_equiv_pos_as_xyz
  'x, y, z'

loop_
  _atom_site_label
  _atom_site_occupancy
  _atom_site_fract_x
  _atom_site_fract_y
  _atom_site_fract_z
  _atom_site_thermal_displace_type
  _atom_site_B_iso_or_equiv
  _atom_site_type_symbol
  K1       1.0000 0.07818  0.82070  0.75000  Biso   1.000  K
  K2       1.0000 0.07818  0.67930  0.25000  Biso   1.000  K
  K3       1.0000 0.92182  0.32070  0.75000  Biso   1.000  K
  K4       1.0000 0.92182  0.17930  0.25000  Biso   1.000  K
  Pb1      1.0000 0.65287  0.75035  0.75000  Biso   1.000  Pb
  Pb2      1.0000 0.65287  0.74965  0.25000  Biso   1.000  Pb
  Pb3      1.0000 0.64061  0.25035  0.75000  Biso   1.000  Pb
  Pb4      1.0000 0.64061  0.24965  0.25000  Biso   1.000  Pb
  Pb5      1.0000 0.35939  0.74965  0.25000  Biso   1.000  Pb
  Pb6      1.0000 0.35939  0.75035  0.75000  Biso   1.000  Pb
  Pb7      1.0000 0.34713  0.24965  0.25000  Biso   1.000  Pb
  Pb8      1.0000 0.34713  0.25035  0.75000  Biso   1.000  Pb
  Nb1      1.0000 0.50000  0.50000  0.50000  Biso   1.000  Nb
  Nb2      1.0000 0.50000  0.50000  0.00000  Biso   1.000  Nb
  Nb3      1.0000 0.50000  0.00000  0.50000  Biso   1.000  Nb
  Nb4      1.0000 0.50000  0.00000  0.00000  Biso   1.000  Nb
  Ta1      1.0000 0.78716  0.49512  0.50000  Biso   1.000  Ta
  Ta2      1.0000 0.78716  0.49512  0.00000  Biso   1.000  Ta
  Ta3      1.0000 0.78716  0.00488  0.50000  Biso   1.000  Ta
  Ta4      1.0000 0.78716  0.00488  0.00000  Biso   1.000  Ta
  Ta5      1.0000 0.21284  0.50488  0.50000  Biso   1.000  Ta
  Ta6      1.0000 0.21284  0.50488  0.00000  Biso   1.000  Ta
  Ta7      1.0000 0.21284  0.99512  0.50000  Biso   1.000  Ta
  Ta8      1.0000 0.21284  0.99512  0.00000  Biso   1.000  Ta
  O1       1.0000 0.50000  0.50000  0.75000  Biso   1.000  O
  O2       1.0000 0.50000  0.50000  0.25000  Biso   1.000  O
  O3       1.0000 0.50000  0.00000  0.75000  Biso   1.000  O
  O4       1.0000 0.50000  0.00000  0.25000  Biso   1.000  O
  O5       1.0000 0.54297  0.25000  0.50000  Biso   1.000  O
  O6       1.0000 0.54297  0.25000  0.00000  Biso   1.000  O
  O7       1.0000 0.45703  0.75000  0.50000  Biso   1.000  O
  O8       1.0000 0.45703  0.75000  0.00000  Biso   1.000  O
  O9       1.0000 0.63024  0.51945  0.50000  Biso   1.000  O
  O10      1.0000 0.63024  0.51945  0.00000  Biso   1.000  O
  O11      1.0000 0.63024  0.98055  0.50000  Biso   1.000  O
  O12      1.0000 0.63024  0.98055  0.00000  Biso   1.000  O
  O13      1.0000 0.36976  0.48055  0.50000  Biso   1.000  O
  O14      1.0000 0.36976  0.48055  0.00000  Biso   1.000  O
  O15      1.0000 0.36976  0.01945  0.50000  Biso   1.000  O
  O16      1.0000 0.36976  0.01945  0.00000  Biso   1.000  O
  O17      1.0000 0.76236  0.49711  0.75000  Biso   1.000  O
  O18      1.0000 0.76236  0.49790  0.25000  Biso   1.000  O
  O19      1.0000 0.76236  0.00210  0.75000  Biso   1.000  O
  O20      1.0000 0.76236  0.00289  0.25000  Biso   1.000  O
  O21      1.0000 0.23764  0.50289  0.25000  Biso   1.000  O
  O22      1.0000 0.23764  0.50210  0.75000  Biso   1.000  O
  O23      1.0000 0.23764  0.99790  0.25000  Biso   1.000  O
  O24      1.0000 0.23764  0.99711  0.75000  Biso   1.000  O
  O25      1.0000 0.19746  0.25000  0.50000  Biso   1.000  O
  O26      1.0000 0.19746  0.25000  0.00000  Biso   1.000  O
  O27      1.0000 0.27782  0.75000  0.50000  Biso   1.000  O
  O28      1.0000 0.27782  0.75000  0.00000  Biso   1.000  O
  O29      1.0000 0.72218  0.25000  0.50000  Biso   1.000  O
  O30      1.0000 0.72218  0.25000  0.00000  Biso   1.000  O
  O31      1.0000 0.80254  0.75000  0.50000  Biso   1.000  O
  O32      1.0000 0.80254  0.75000  0.00000  Biso   1.000  O
  O33      1.0000 0.90374  0.47386  0.50000  Biso   1.000  O
  O34      1.0000 0.90374  0.47386  0.00000  Biso   1.000  O
  O35      1.0000 0.90374  0.02614  0.50000  Biso   1.000  O
  O36      1.0000 0.90374  0.02614  0.00000  Biso   1.000  O
  O37      1.0000 0.09626  0.52614  0.50000  Biso   1.000  O
  O38      1.0000 0.09626  0.52614  0.00000  Biso   1.000  O
  O39      1.0000 0.09626  0.97386  0.50000  Biso   1.000  O
  O40      1.0000 0.09626  0.97386  0.00000  Biso   1.000  O
