data_image0
_cell_length_a       7.8528
_cell_length_b       7.8528
_cell_length_c       30.3622
_cell_angle_alpha    90
_cell_angle_beta     90
_cell_angle_gamma    90

_symmetry_space_group_name_H-M    "P 1"
_symmetry_int_tables_number       1

loop_
  _symmetry_equiv_pos_as_xyz
  'x, y, z'

loop_
  _atom_site_label
  _atom_site_occupancy
  _atom_site_fract_x
  _atom_site_fract_y
  _atom_site_fract_z
  _atom_site_thermal_displace_type
  _atom_site_B_iso_or_equiv
  _atom_site_type_symbol
  K1       1.0000 0.00000  0.00000  0.13723  Biso   1.000  K
  K2       1.0000 0.00000  0.00000  0.51912  Biso   1.000  K
  K3       1.0000 0.00000  0.50000  0.94094  Biso   1.000  K
  K4       1.0000 0.00000  0.50000  0.55906  Biso   1.000  K
  K5       1.0000 0.50000  0.00000  0.05906  Biso   1.000  K
  K6       1.0000 0.50000  0.00000  0.44094  Biso   1.000  K
  K7       1.0000 0.50000  0.50000  0.86277  Biso   1.000  K
  K8       1.0000 0.50000  0.50000  0.48088  Biso   1.000  K
  Pb1      1.0000 0.00000  0.00000  0.83293  Biso   1.000  Pb
  Pb2      1.0000 0.00000  0.00000  0.32607  Biso   1.000  Pb
  Pb3      1.0000 0.00000  0.50000  0.81994  Biso   1.000  Pb
  Pb4      1.0000 0.00000  0.50000  0.32680  Biso   1.000  Pb
  Pb5      1.0000 0.50000  0.00000  0.82680  Biso   1.000  Pb
  Pb6      1.0000 0.50000  0.00000  0.31994  Biso   1.000  Pb
  Pb7      1.0000 0.50000  0.50000  0.81381  Biso   1.000  Pb
  Pb8      1.0000 0.50000  0.50000  0.32067  Biso   1.000  Pb
  Pb9      1.0000 0.00000  0.50000  0.68006  Biso   1.000  Pb
  Pb10     1.0000 0.00000  0.50000  0.17320  Biso   1.000  Pb
  Pb11     1.0000 0.00000  0.00000  0.67933  Biso   1.000  Pb
  Pb12     1.0000 0.00000  0.00000  0.18619  Biso   1.000  Pb
  Pb13     1.0000 0.50000  0.50000  0.67393  Biso   1.000  Pb
  Pb14     1.0000 0.50000  0.50000  0.16707  Biso   1.000  Pb
  Pb15     1.0000 0.50000  0.00000  0.67320  Biso   1.000  Pb
  Pb16     1.0000 0.50000  0.00000  0.18006  Biso   1.000  Pb
  Nb1      1.0000 0.75000  0.75179  0.75000  Biso   1.000  Nb
  Nb2      1.0000 0.75000  0.74821  0.25000  Biso   1.000  Nb
  Nb3      1.0000 0.75000  0.24821  0.75000  Biso   1.000  Nb
  Nb4      1.0000 0.75000  0.25179  0.25000  Biso   1.000  Nb
  Nb5      1.0000 0.25000  0.75179  0.75000  Biso   1.000  Nb
  Nb6      1.0000 0.25000  0.74821  0.25000  Biso   1.000  Nb
  Nb7      1.0000 0.25000  0.24821  0.75000  Biso   1.000  Nb
  Nb8      1.0000 0.25000  0.25179  0.25000  Biso   1.000  Nb
  Ta1      1.0000 0.74512  0.73985  0.89358  Biso   1.000  Ta
  Ta2      1.0000 0.74512  0.75038  0.39358  Biso   1.000  Ta
  Ta3      1.0000 0.74512  0.26015  0.89358  Biso   1.000  Ta
  Ta4      1.0000 0.74512  0.24962  0.39358  Biso   1.000  Ta
  Ta5      1.0000 0.25488  0.73985  0.89358  Biso   1.000  Ta
  Ta6      1.0000 0.25488  0.75038  0.39358  Biso   1.000  Ta
  Ta7      1.0000 0.25488  0.26015  0.89358  Biso   1.000  Ta
  Ta8      1.0000 0.25488  0.24962  0.39358  Biso   1.000  Ta
  Ta9      1.0000 0.75488  0.74962  0.60642  Biso   1.000  Ta
  Ta10     1.0000 0.75488  0.76015  0.10642  Biso   1.000  Ta
  Ta11     1.0000 0.75488  0.25038  0.60642  Biso   1.000  Ta
  Ta12     1.0000 0.75488  0.23985  0.10642  Biso   1.000  Ta
  Ta13     1.0000 0.24512  0.74962  0.60642  Biso   1.000  Ta
  Ta14     1.0000 0.24512  0.76015  0.10642  Biso   1.000  Ta
  Ta15     1.0000 0.24512  0.25038  0.60642  Biso   1.000  Ta
  Ta16     1.0000 0.24512  0.23985  0.10642  Biso   1.000  Ta
  O1       1.0000 0.75000  0.00000  0.72851  Biso   1.000  O
  O2       1.0000 0.75000  0.00000  0.22851  Biso   1.000  O
  O3       1.0000 0.75000  0.50000  0.77149  Biso   1.000  O
  O4       1.0000 0.75000  0.50000  0.27149  Biso   1.000  O
  O5       1.0000 0.25000  0.00000  0.72851  Biso   1.000  O
  O6       1.0000 0.25000  0.00000  0.22851  Biso   1.000  O
  O7       1.0000 0.25000  0.50000  0.77149  Biso   1.000  O
  O8       1.0000 0.25000  0.50000  0.27149  Biso   1.000  O
  O9       1.0000 0.50000  0.74926  0.77149  Biso   1.000  O
  O10      1.0000 0.50000  0.75074  0.27149  Biso   1.000  O
  O11      1.0000 0.50000  0.25074  0.77149  Biso   1.000  O
  O12      1.0000 0.50000  0.24926  0.27149  Biso   1.000  O
  O13      1.0000 0.00000  0.74926  0.72851  Biso   1.000  O
  O14      1.0000 0.00000  0.75074  0.22851  Biso   1.000  O
  O15      1.0000 0.00000  0.25074  0.72851  Biso   1.000  O
  O16      1.0000 0.00000  0.24926  0.22851  Biso   1.000  O
  O17      1.0000 0.76945  0.77544  0.81512  Biso   1.000  O
  O18      1.0000 0.76945  0.76345  0.31512  Biso   1.000  O
  O19      1.0000 0.76945  0.22456  0.81512  Biso   1.000  O
  O20      1.0000 0.76945  0.23655  0.31512  Biso   1.000  O
  O21      1.0000 0.23055  0.77544  0.81512  Biso   1.000  O
  O22      1.0000 0.23055  0.76345  0.31512  Biso   1.000  O
  O23      1.0000 0.23055  0.22456  0.81512  Biso   1.000  O
  O24      1.0000 0.23055  0.23655  0.31512  Biso   1.000  O
  O25      1.0000 0.73055  0.73655  0.68488  Biso   1.000  O
  O26      1.0000 0.73055  0.72456  0.18488  Biso   1.000  O
  O27      1.0000 0.73055  0.26345  0.68488  Biso   1.000  O
  O28      1.0000 0.73055  0.27544  0.18488  Biso   1.000  O
  O29      1.0000 0.26945  0.73655  0.68488  Biso   1.000  O
  O30      1.0000 0.26945  0.72456  0.18488  Biso   1.000  O
  O31      1.0000 0.26945  0.26345  0.68488  Biso   1.000  O
  O32      1.0000 0.26945  0.27544  0.18488  Biso   1.000  O
  O33      1.0000 0.74750  0.00000  0.91377  Biso   1.000  O
  O34      1.0000 0.74750  0.00000  0.38877  Biso   1.000  O
  O35      1.0000 0.74750  0.50000  0.84859  Biso   1.000  O
  O36      1.0000 0.74750  0.50000  0.37359  Biso   1.000  O
  O37      1.0000 0.25250  0.00000  0.91377  Biso   1.000  O
  O38      1.0000 0.25250  0.00000  0.38877  Biso   1.000  O
  O39      1.0000 0.25250  0.50000  0.84859  Biso   1.000  O
  O40      1.0000 0.25250  0.50000  0.37359  Biso   1.000  O
  O41      1.0000 0.75250  0.50000  0.61123  Biso   1.000  O
  O42      1.0000 0.75250  0.50000  0.08623  Biso   1.000  O
  O43      1.0000 0.75250  0.00000  0.62641  Biso   1.000  O
  O44      1.0000 0.75250  0.00000  0.15141  Biso   1.000  O
  O45      1.0000 0.24750  0.50000  0.61123  Biso   1.000  O
  O46      1.0000 0.24750  0.50000  0.08623  Biso   1.000  O
  O47      1.0000 0.24750  0.00000  0.62641  Biso   1.000  O
  O48      1.0000 0.24750  0.00000  0.15141  Biso   1.000  O
  O49      1.0000 0.50000  0.75113  0.59873  Biso   1.000  O
  O50      1.0000 0.50000  0.75386  0.09873  Biso   1.000  O
  O51      1.0000 0.50000  0.24887  0.59873  Biso   1.000  O
  O52      1.0000 0.50000  0.24614  0.09873  Biso   1.000  O
  O53      1.0000 0.00000  0.75113  0.63891  Biso   1.000  O
  O54      1.0000 0.00000  0.75386  0.13891  Biso   1.000  O
  O55      1.0000 0.00000  0.24887  0.63891  Biso   1.000  O
  O56      1.0000 0.00000  0.24614  0.13891  Biso   1.000  O
  O57      1.0000 0.50000  0.74614  0.86109  Biso   1.000  O
  O58      1.0000 0.50000  0.74887  0.36109  Biso   1.000  O
  O59      1.0000 0.50000  0.25386  0.86109  Biso   1.000  O
  O60      1.0000 0.50000  0.25113  0.36109  Biso   1.000  O
  O61      1.0000 0.00000  0.74614  0.90127  Biso   1.000  O
  O62      1.0000 0.00000  0.74887  0.40127  Biso   1.000  O
  O63      1.0000 0.00000  0.25386  0.90127  Biso   1.000  O
  O64      1.0000 0.00000  0.25113  0.40127  Biso   1.000  O
  O65      1.0000 0.72386  0.70107  0.95187  Biso   1.000  O
  O66      1.0000 0.72386  0.74665  0.45187  Biso   1.000  O
  O67      1.0000 0.72386  0.29893  0.95187  Biso   1.000  O
  O68      1.0000 0.72386  0.25335  0.45187  Biso   1.000  O
  O69      1.0000 0.27614  0.70107  0.95187  Biso   1.000  O
  O70      1.0000 0.27614  0.74665  0.45187  Biso   1.000  O
  O71      1.0000 0.27614  0.29893  0.95187  Biso   1.000  O
  O72      1.0000 0.27614  0.25335  0.45187  Biso   1.000  O
  O73      1.0000 0.77614  0.75335  0.54813  Biso   1.000  O
  O74      1.0000 0.77614  0.79893  0.04813  Biso   1.000  O
  O75      1.0000 0.77614  0.24665  0.54813  Biso   1.000  O
  O76      1.0000 0.77614  0.20107  0.04813  Biso   1.000  O
  O77      1.0000 0.22386  0.75335  0.54813  Biso   1.000  O
  O78      1.0000 0.22386  0.79893  0.04813  Biso   1.000  O
  O79      1.0000 0.22386  0.24665  0.54813  Biso   1.000  O
  O80      1.0000 0.22386  0.20107  0.04813  Biso   1.000  O
