data_image0
_cell_length_a       7.8528
_cell_length_b       7.8528
_cell_length_c       15.1811
_cell_angle_alpha    90
_cell_angle_beta     90
_cell_angle_gamma    90

_symmetry_space_group_name_H-M    "P 1"
_symmetry_int_tables_number       1

loop_
  _symmetry_equiv_pos_as_xyz
  'x, y, z'

loop_
  _atom_site_label
  _atom_site_occupancy
  _atom_site_fract_x
  _atom_site_fract_y
  _atom_site_fract_z
  _atom_site_thermal_displace_type
  _atom_site_B_iso_or_equiv
  _atom_site_type_symbol
  K1       1.0000 0.25000  0.25000  0.65636  Biso   1.000  K
  K2       1.0000 0.75000  0.25000  0.50000  Biso   1.000  K
  K3       1.0000 0.25000  0.75000  0.50000  Biso   1.000  K
  K4       1.0000 0.75000  0.75000  0.34364  Biso   1.000  K
  Pb1      1.0000 0.26564  0.26564  0.15900  Biso   1.000  Pb
  Pb2      1.0000 0.73436  0.23436  0.14674  Biso   1.000  Pb
  Pb3      1.0000 0.23436  0.73436  0.14674  Biso   1.000  Pb
  Pb4      1.0000 0.76564  0.76564  0.13448  Biso   1.000  Pb
  Pb5      1.0000 0.76564  0.26564  0.85326  Biso   1.000  Pb
  Pb6      1.0000 0.23436  0.23436  0.86552  Biso   1.000  Pb
  Pb7      1.0000 0.73436  0.73436  0.84100  Biso   1.000  Pb
  Pb8      1.0000 0.26564  0.76564  0.85326  Biso   1.000  Pb
  Nb1      1.0000 0.50000  0.00000  0.00000  Biso   1.000  Nb
  Nb2      1.0000 0.00000  0.00000  0.00000  Biso   1.000  Nb
  Nb3      1.0000 0.50000  0.50000  0.00000  Biso   1.000  Nb
  Nb4      1.0000 0.00000  0.50000  0.00000  Biso   1.000  Nb
  Ta1      1.0000 0.50138  0.99161  0.28716  Biso   1.000  Ta
  Ta2      1.0000 0.99862  0.99862  0.28716  Biso   1.000  Ta
  Ta3      1.0000 0.50839  0.50839  0.28716  Biso   1.000  Ta
  Ta4      1.0000 0.99161  0.50138  0.28716  Biso   1.000  Ta
  Ta5      1.0000 0.49862  0.00839  0.71284  Biso   1.000  Ta
  Ta6      1.0000 0.00138  0.00138  0.71284  Biso   1.000  Ta
  Ta7      1.0000 0.49161  0.49161  0.71284  Biso   1.000  Ta
  Ta8      1.0000 0.00839  0.49862  0.71284  Biso   1.000  Ta
  O1       1.0000 0.25000  0.00000  0.00106  Biso   1.000  O
  O2       1.0000 0.75000  0.00000  0.99894  Biso   1.000  O
  O3       1.0000 0.25000  0.50000  0.91299  Biso   1.000  O
  O4       1.0000 0.75000  0.50000  0.08701  Biso   1.000  O
  O5       1.0000 0.50000  0.75000  0.08701  Biso   1.000  O
  O6       1.0000 0.00000  0.75000  0.99894  Biso   1.000  O
  O7       1.0000 0.50000  0.25000  0.91299  Biso   1.000  O
  O8       1.0000 0.00000  0.25000  0.00106  Biso   1.000  O
  O9       1.0000 0.50159  0.04048  0.13024  Biso   1.000  O
  O10      1.0000 0.99841  0.99841  0.13024  Biso   1.000  O
  O11      1.0000 0.45952  0.45952  0.13024  Biso   1.000  O
  O12      1.0000 0.04048  0.50159  0.13024  Biso   1.000  O
  O13      1.0000 0.49841  0.95952  0.86976  Biso   1.000  O
  O14      1.0000 0.00159  0.00159  0.86976  Biso   1.000  O
  O15      1.0000 0.54048  0.54048  0.86976  Biso   1.000  O
  O16      1.0000 0.95952  0.49841  0.86976  Biso   1.000  O
  O17      1.0000 0.25000  0.99750  0.27781  Biso   1.000  O
  O18      1.0000 0.75000  0.99750  0.24691  Biso   1.000  O
  O19      1.0000 0.25000  0.50250  0.32726  Biso   1.000  O
  O20      1.0000 0.75000  0.50250  0.19746  Biso   1.000  O
  O21      1.0000 0.75000  0.00250  0.72219  Biso   1.000  O
  O22      1.0000 0.25000  0.00250  0.75309  Biso   1.000  O
  O23      1.0000 0.75000  0.49750  0.67274  Biso   1.000  O
  O24      1.0000 0.25000  0.49750  0.80254  Biso   1.000  O
  O25      1.0000 0.49750  0.75000  0.67274  Biso   1.000  O
  O26      1.0000 0.00250  0.75000  0.72219  Biso   1.000  O
  O27      1.0000 0.49750  0.25000  0.80254  Biso   1.000  O
  O28      1.0000 0.00250  0.25000  0.75309  Biso   1.000  O
  O29      1.0000 0.50250  0.75000  0.19746  Biso   1.000  O
  O30      1.0000 0.99750  0.75000  0.24691  Biso   1.000  O
  O31      1.0000 0.50250  0.25000  0.32726  Biso   1.000  O
  O32      1.0000 0.99750  0.25000  0.27781  Biso   1.000  O
  O33      1.0000 0.51369  0.96141  0.40374  Biso   1.000  O
  O34      1.0000 0.98631  0.98631  0.40374  Biso   1.000  O
  O35      1.0000 0.53859  0.53859  0.40374  Biso   1.000  O
  O36      1.0000 0.96141  0.51369  0.40374  Biso   1.000  O
  O37      1.0000 0.48631  0.03859  0.59626  Biso   1.000  O
  O38      1.0000 0.01369  0.01369  0.59626  Biso   1.000  O
  O39      1.0000 0.46141  0.46141  0.59626  Biso   1.000  O
  O40      1.0000 0.03859  0.48631  0.59626  Biso   1.000  O
