data_image0
_cell_length_a       15.1811
_cell_length_b       7.8528
_cell_length_c       7.8528
_cell_angle_alpha    90
_cell_angle_beta     90
_cell_angle_gamma    90

_symmetry_space_group_name_H-M    "P 1"
_symmetry_int_tables_number       1

loop_
  _symmetry_equiv_pos_as_xyz
  'x, y, z'

loop_
  _atom_site_label
  _atom_site_occupancy
  _atom_site_fract_x
  _atom_site_fract_y
  _atom_site_fract_z
  _atom_site_thermal_displace_type
  _atom_site_B_iso_or_equiv
  _atom_site_type_symbol
  K1       1.0000 0.34364  0.21236  0.71236  Biso   1.000  K
  K2       1.0000 0.50000  0.28764  0.28764  Biso   1.000  K
  K3       1.0000 0.50000  0.78764  0.78764  Biso   1.000  K
  K4       1.0000 0.65636  0.71236  0.21236  Biso   1.000  K
  Pb1      1.0000 0.84100  0.26243  0.76243  Biso   1.000  Pb
  Pb2      1.0000 0.85326  0.23757  0.23757  Biso   1.000  Pb
  Pb3      1.0000 0.85326  0.73757  0.73757  Biso   1.000  Pb
  Pb4      1.0000 0.86552  0.76243  0.26243  Biso   1.000  Pb
  Pb5      1.0000 0.14674  0.23757  0.23757  Biso   1.000  Pb
  Pb6      1.0000 0.13448  0.26243  0.76243  Biso   1.000  Pb
  Pb7      1.0000 0.15900  0.76243  0.26243  Biso   1.000  Pb
  Pb8      1.0000 0.14674  0.73757  0.73757  Biso   1.000  Pb
  Nb1      1.0000 0.00000  0.00031  0.00031  Biso   1.000  Nb
  Nb2      1.0000 0.00000  0.99969  0.49969  Biso   1.000  Nb
  Nb3      1.0000 0.00000  0.49969  0.99969  Biso   1.000  Nb
  Nb4      1.0000 0.00000  0.50031  0.50031  Biso   1.000  Nb
  Ta1      1.0000 0.71284  0.98930  0.99907  Biso   1.000  Ta
  Ta2      1.0000 0.71284  0.00093  0.50093  Biso   1.000  Ta
  Ta3      1.0000 0.71284  0.51070  0.01070  Biso   1.000  Ta
  Ta4      1.0000 0.71284  0.49907  0.48930  Biso   1.000  Ta
  Ta5      1.0000 0.28716  0.99907  0.98930  Biso   1.000  Ta
  Ta6      1.0000 0.28716  0.01070  0.51070  Biso   1.000  Ta
  Ta7      1.0000 0.28716  0.50093  0.00093  Biso   1.000  Ta
  Ta8      1.0000 0.28716  0.48930  0.49907  Biso   1.000  Ta
  O1       1.0000 0.04297  0.00000  0.75000  Biso   1.000  O
  O2       1.0000 0.95703  0.00000  0.25000  Biso   1.000  O
  O3       1.0000 0.04297  0.50000  0.75000  Biso   1.000  O
  O4       1.0000 0.95703  0.50000  0.25000  Biso   1.000  O
  O5       1.0000 0.95703  0.75000  0.00000  Biso   1.000  O
  O6       1.0000 0.95703  0.75000  0.50000  Biso   1.000  O
  O7       1.0000 0.04297  0.25000  0.00000  Biso   1.000  O
  O8       1.0000 0.04297  0.25000  0.50000  Biso   1.000  O
  O9       1.0000 0.86976  0.02522  0.98633  Biso   1.000  O
  O10      1.0000 0.86976  0.01367  0.51367  Biso   1.000  O
  O11      1.0000 0.86976  0.47478  0.97478  Biso   1.000  O
  O12      1.0000 0.86976  0.48633  0.52522  Biso   1.000  O
  O13      1.0000 0.13024  0.98633  0.02522  Biso   1.000  O
  O14      1.0000 0.13024  0.97478  0.47478  Biso   1.000  O
  O15      1.0000 0.13024  0.51367  0.01367  Biso   1.000  O
  O16      1.0000 0.13024  0.52522  0.48633  Biso   1.000  O
  O17      1.0000 0.71484  0.99750  0.75000  Biso   1.000  O
  O18      1.0000 0.76044  0.99750  0.25000  Biso   1.000  O
  O19      1.0000 0.68008  0.50250  0.75000  Biso   1.000  O
  O20      1.0000 0.79520  0.50250  0.25000  Biso   1.000  O
  O21      1.0000 0.31992  0.00250  0.25000  Biso   1.000  O
  O22      1.0000 0.20480  0.00250  0.75000  Biso   1.000  O
  O23      1.0000 0.28516  0.49750  0.25000  Biso   1.000  O
  O24      1.0000 0.23956  0.49750  0.75000  Biso   1.000  O
  O25      1.0000 0.28516  0.75000  0.99750  Biso   1.000  O
  O26      1.0000 0.31992  0.75000  0.50250  Biso   1.000  O
  O27      1.0000 0.23956  0.25000  0.99750  Biso   1.000  O
  O28      1.0000 0.20480  0.25000  0.50250  Biso   1.000  O
  O29      1.0000 0.79520  0.75000  0.00250  Biso   1.000  O
  O30      1.0000 0.76044  0.75000  0.49750  Biso   1.000  O
  O31      1.0000 0.68008  0.25000  0.00250  Biso   1.000  O
  O32      1.0000 0.71484  0.25000  0.49750  Biso   1.000  O
  O33      1.0000 0.59626  0.95823  0.01050  Biso   1.000  O
  O34      1.0000 0.59626  0.98950  0.48950  Biso   1.000  O
  O35      1.0000 0.59626  0.54177  0.04177  Biso   1.000  O
  O36      1.0000 0.59626  0.51050  0.45823  Biso   1.000  O
  O37      1.0000 0.40374  0.01050  0.95823  Biso   1.000  O
  O38      1.0000 0.40374  0.04177  0.54177  Biso   1.000  O
  O39      1.0000 0.40374  0.48950  0.98950  Biso   1.000  O
  O40      1.0000 0.40374  0.45823  0.51050  Biso   1.000  O
