data_image0
_cell_length_a       15.6806
_cell_length_b       15.6806
_cell_length_c       7.8528
_cell_angle_alpha    90
_cell_angle_beta     90
_cell_angle_gamma    150.998

_symmetry_space_group_name_H-M    "P 1"
_symmetry_int_tables_number       1

loop_
  _symmetry_equiv_pos_as_xyz
  'x, y, z'

loop_
  _atom_site_label
  _atom_site_occupancy
  _atom_site_fract_x
  _atom_site_fract_y
  _atom_site_fract_z
  _atom_site_thermal_displace_type
  _atom_site_B_iso_or_equiv
  _atom_site_type_symbol
  K1       1.0000 0.84815  0.15185  0.75000  Biso   1.000  K
  K2       1.0000 0.23003  0.76997  0.75000  Biso   1.000  K
  K3       1.0000 0.76997  0.23003  0.25000  Biso   1.000  K
  K4       1.0000 0.15185  0.84815  0.25000  Biso   1.000  K
  Pb1      1.0000 0.57986  0.42014  0.75000  Biso   1.000  Pb
  Pb2      1.0000 0.07301  0.92699  0.75000  Biso   1.000  Pb
  Pb3      1.0000 0.57373  0.42627  0.25000  Biso   1.000  Pb
  Pb4      1.0000 0.06688  0.93312  0.25000  Biso   1.000  Pb
  Pb5      1.0000 0.42014  0.57986  0.25000  Biso   1.000  Pb
  Pb6      1.0000 0.92699  0.07301  0.25000  Biso   1.000  Pb
  Pb7      1.0000 0.42627  0.57373  0.75000  Biso   1.000  Pb
  Pb8      1.0000 0.93312  0.06688  0.75000  Biso   1.000  Pb
  Nb1      1.0000 0.74821  0.74821  0.00000  Biso   1.000  Nb
  Nb2      1.0000 0.25179  0.25179  0.00000  Biso   1.000  Nb
  Nb3      1.0000 0.74821  0.74821  0.50000  Biso   1.000  Nb
  Nb4      1.0000 0.25179  0.25179  0.50000  Biso   1.000  Nb
  Ta1      1.0000 0.89884  0.61168  0.00488  Biso   1.000  Ta
  Ta2      1.0000 0.38832  0.10116  0.00488  Biso   1.000  Ta
  Ta3      1.0000 0.89884  0.61168  0.49512  Biso   1.000  Ta
  Ta4      1.0000 0.38832  0.10116  0.49512  Biso   1.000  Ta
  Ta5      1.0000 0.61168  0.89884  0.99512  Biso   1.000  Ta
  Ta6      1.0000 0.10116  0.38832  0.99512  Biso   1.000  Ta
  Ta7      1.0000 0.61168  0.89884  0.50488  Biso   1.000  Ta
  Ta8      1.0000 0.10116  0.38832  0.50488  Biso   1.000  Ta
  O1       1.0000 0.72925  0.77223  0.75000  Biso   1.000  O
  O2       1.0000 0.22777  0.27075  0.75000  Biso   1.000  O
  O3       1.0000 0.77223  0.72925  0.25000  Biso   1.000  O
  O4       1.0000 0.27075  0.22777  0.25000  Biso   1.000  O
  O5       1.0000 0.00000  0.00000  0.00000  Biso   1.000  O
  O6       1.0000 0.50000  0.50000  0.00000  Biso   1.000  O
  O7       1.0000 0.00000  0.00000  0.50000  Biso   1.000  O
  O8       1.0000 0.50000  0.50000  0.50000  Biso   1.000  O
  O9       1.0000 0.80912  0.67888  0.98055  Biso   1.000  O
  O10      1.0000 0.32112  0.19088  0.98055  Biso   1.000  O
  O11      1.0000 0.80912  0.67888  0.51945  Biso   1.000  O
  O12      1.0000 0.32112  0.19088  0.51945  Biso   1.000  O
  O13      1.0000 0.67888  0.80912  0.01945  Biso   1.000  O
  O14      1.0000 0.19088  0.32112  0.01945  Biso   1.000  O
  O15      1.0000 0.67888  0.80912  0.48055  Biso   1.000  O
  O16      1.0000 0.19088  0.32112  0.48055  Biso   1.000  O
  O17      1.0000 0.90264  0.60010  0.75000  Biso   1.000  O
  O18      1.0000 0.39990  0.09736  0.75000  Biso   1.000  O
  O19      1.0000 0.86246  0.64028  0.25000  Biso   1.000  O
  O20      1.0000 0.35972  0.13754  0.25000  Biso   1.000  O
  O21      1.0000 0.60010  0.90264  0.25000  Biso   1.000  O
  O22      1.0000 0.09736  0.39990  0.25000  Biso   1.000  O
  O23      1.0000 0.64028  0.86246  0.75000  Biso   1.000  O
  O24      1.0000 0.13754  0.35972  0.75000  Biso   1.000  O
  O25      1.0000 0.88132  0.11868  0.99750  Biso   1.000  O
  O26      1.0000 0.35632  0.64368  0.99750  Biso   1.000  O
  O27      1.0000 0.88132  0.11868  0.50250  Biso   1.000  O
  O28      1.0000 0.35632  0.64368  0.50250  Biso   1.000  O
  O29      1.0000 0.11868  0.88132  0.00250  Biso   1.000  O
  O30      1.0000 0.64368  0.35632  0.00250  Biso   1.000  O
  O31      1.0000 0.11868  0.88132  0.49750  Biso   1.000  O
  O32      1.0000 0.64368  0.35632  0.49750  Biso   1.000  O
  O33      1.0000 0.97466  0.57092  0.02614  Biso   1.000  O
  O34      1.0000 0.42908  0.02534  0.02614  Biso   1.000  O
  O35      1.0000 0.97466  0.57092  0.47386  Biso   1.000  O
  O36      1.0000 0.42908  0.02534  0.47386  Biso   1.000  O
  O37      1.0000 0.57092  0.97466  0.97386  Biso   1.000  O
  O38      1.0000 0.02534  0.42908  0.97386  Biso   1.000  O
  O39      1.0000 0.57092  0.97466  0.52614  Biso   1.000  O
  O40      1.0000 0.02534  0.42908  0.52614  Biso   1.000  O
