data_image0
_cell_length_a       30.3622
_cell_length_b       7.8528
_cell_length_c       7.8528
_cell_angle_alpha    90
_cell_angle_beta     90
_cell_angle_gamma    90

_symmetry_space_group_name_H-M    "P 1"
_symmetry_int_tables_number       1

loop_
  _symmetry_equiv_pos_as_xyz
  'x, y, z'

loop_
  _atom_site_label
  _atom_site_occupancy
  _atom_site_fract_x
  _atom_site_fract_y
  _atom_site_fract_z
  _atom_site_thermal_displace_type
  _atom_site_B_iso_or_equiv
  _atom_site_type_symbol
  K1       1.0000 0.32818  0.75000  0.34893  Biso   1.000  K
  K2       1.0000 0.82818  0.75000  0.15107  Biso   1.000  K
  K3       1.0000 0.25000  0.75000  0.84893  Biso   1.000  K
  K4       1.0000 0.75000  0.75000  0.65107  Biso   1.000  K
  K5       1.0000 0.25000  0.25000  0.34893  Biso   1.000  K
  K6       1.0000 0.75000  0.25000  0.15107  Biso   1.000  K
  K7       1.0000 0.17182  0.25000  0.84893  Biso   1.000  K
  K8       1.0000 0.67182  0.25000  0.65107  Biso   1.000  K
  Pb1      1.0000 0.07950  0.75000  0.24811  Biso   1.000  Pb
  Pb2      1.0000 0.57950  0.75000  0.25189  Biso   1.000  Pb
  Pb3      1.0000 0.07337  0.75000  0.74811  Biso   1.000  Pb
  Pb4      1.0000 0.57337  0.75000  0.75189  Biso   1.000  Pb
  Pb5      1.0000 0.07337  0.25000  0.24811  Biso   1.000  Pb
  Pb6      1.0000 0.57337  0.25000  0.25189  Biso   1.000  Pb
  Pb7      1.0000 0.06724  0.25000  0.74811  Biso   1.000  Pb
  Pb8      1.0000 0.56724  0.25000  0.75189  Biso   1.000  Pb
  Pb9      1.0000 0.92663  0.75000  0.75189  Biso   1.000  Pb
  Pb10     1.0000 0.42663  0.75000  0.74811  Biso   1.000  Pb
  Pb11     1.0000 0.93276  0.75000  0.25189  Biso   1.000  Pb
  Pb12     1.0000 0.43276  0.75000  0.24811  Biso   1.000  Pb
  Pb13     1.0000 0.92050  0.25000  0.75189  Biso   1.000  Pb
  Pb14     1.0000 0.42050  0.25000  0.74811  Biso   1.000  Pb
  Pb15     1.0000 0.92663  0.25000  0.25189  Biso   1.000  Pb
  Pb16     1.0000 0.42663  0.25000  0.24811  Biso   1.000  Pb
  Nb1      1.0000 0.00000  0.50000  0.00000  Biso   1.000  Nb
  Nb2      1.0000 0.50000  0.50000  0.00000  Biso   1.000  Nb
  Nb3      1.0000 0.00000  0.50000  0.50000  Biso   1.000  Nb
  Nb4      1.0000 0.50000  0.50000  0.50000  Biso   1.000  Nb
  Nb5      1.0000 0.00000  0.00000  0.00000  Biso   1.000  Nb
  Nb6      1.0000 0.50000  0.00000  0.00000  Biso   1.000  Nb
  Nb7      1.0000 0.00000  0.00000  0.50000  Biso   1.000  Nb
  Nb8      1.0000 0.50000  0.00000  0.50000  Biso   1.000  Nb
  Ta1      1.0000 0.14358  0.49512  0.98958  Biso   1.000  Ta
  Ta2      1.0000 0.64358  0.49512  0.00065  Biso   1.000  Ta
  Ta3      1.0000 0.14358  0.49512  0.49935  Biso   1.000  Ta
  Ta4      1.0000 0.64358  0.49512  0.51042  Biso   1.000  Ta
  Ta5      1.0000 0.14358  0.00488  0.98958  Biso   1.000  Ta
  Ta6      1.0000 0.64358  0.00488  0.00065  Biso   1.000  Ta
  Ta7      1.0000 0.14358  0.00488  0.49935  Biso   1.000  Ta
  Ta8      1.0000 0.64358  0.00488  0.51042  Biso   1.000  Ta
  Ta9      1.0000 0.85642  0.50488  0.01042  Biso   1.000  Ta
  Ta10     1.0000 0.35642  0.50488  0.99935  Biso   1.000  Ta
  Ta11     1.0000 0.85642  0.50488  0.50065  Biso   1.000  Ta
  Ta12     1.0000 0.35642  0.50488  0.48958  Biso   1.000  Ta
  Ta13     1.0000 0.85642  0.99512  0.01042  Biso   1.000  Ta
  Ta14     1.0000 0.35642  0.99512  0.99935  Biso   1.000  Ta
  Ta15     1.0000 0.85642  0.99512  0.50065  Biso   1.000  Ta
  Ta16     1.0000 0.35642  0.99512  0.48958  Biso   1.000  Ta
  O1       1.0000 0.97851  0.50000  0.25000  Biso   1.000  O
  O2       1.0000 0.47851  0.50000  0.25000  Biso   1.000  O
  O3       1.0000 0.02149  0.50000  0.75000  Biso   1.000  O
  O4       1.0000 0.52149  0.50000  0.75000  Biso   1.000  O
  O5       1.0000 0.97851  0.00000  0.25000  Biso   1.000  O
  O6       1.0000 0.47851  0.00000  0.25000  Biso   1.000  O
  O7       1.0000 0.02149  0.00000  0.75000  Biso   1.000  O
  O8       1.0000 0.52149  0.00000  0.75000  Biso   1.000  O
  O9       1.0000 0.02149  0.25000  0.00000  Biso   1.000  O
  O10      1.0000 0.52149  0.25000  0.00000  Biso   1.000  O
  O11      1.0000 0.02149  0.25000  0.50000  Biso   1.000  O
  O12      1.0000 0.52149  0.25000  0.50000  Biso   1.000  O
  O13      1.0000 0.97851  0.75000  0.00000  Biso   1.000  O
  O14      1.0000 0.47851  0.75000  0.00000  Biso   1.000  O
  O15      1.0000 0.97851  0.75000  0.50000  Biso   1.000  O
  O16      1.0000 0.47851  0.75000  0.50000  Biso   1.000  O
  O17      1.0000 0.06512  0.51945  0.01820  Biso   1.000  O
  O18      1.0000 0.56512  0.51945  0.02069  Biso   1.000  O
  O19      1.0000 0.06512  0.51945  0.47931  Biso   1.000  O
  O20      1.0000 0.56512  0.51945  0.48180  Biso   1.000  O
  O21      1.0000 0.06512  0.98055  0.01820  Biso   1.000  O
  O22      1.0000 0.56512  0.98055  0.02069  Biso   1.000  O
  O23      1.0000 0.06512  0.98055  0.47931  Biso   1.000  O
  O24      1.0000 0.56512  0.98055  0.48180  Biso   1.000  O
  O25      1.0000 0.93488  0.48055  0.98180  Biso   1.000  O
  O26      1.0000 0.43488  0.48055  0.97931  Biso   1.000  O
  O27      1.0000 0.93488  0.48055  0.52069  Biso   1.000  O
  O28      1.0000 0.43488  0.48055  0.51820  Biso   1.000  O
  O29      1.0000 0.93488  0.01945  0.98180  Biso   1.000  O
  O30      1.0000 0.43488  0.01945  0.97931  Biso   1.000  O
  O31      1.0000 0.93488  0.01945  0.52069  Biso   1.000  O
  O32      1.0000 0.43488  0.01945  0.51820  Biso   1.000  O
  O33      1.0000 0.15127  0.49750  0.24807  Biso   1.000  O
  O34      1.0000 0.65127  0.49750  0.25193  Biso   1.000  O
  O35      1.0000 0.11109  0.49750  0.74807  Biso   1.000  O
  O36      1.0000 0.61109  0.49750  0.75193  Biso   1.000  O
  O37      1.0000 0.15127  0.00250  0.24807  Biso   1.000  O
  O38      1.0000 0.65127  0.00250  0.25193  Biso   1.000  O
  O39      1.0000 0.11109  0.00250  0.74807  Biso   1.000  O
  O40      1.0000 0.61109  0.00250  0.75193  Biso   1.000  O
  O41      1.0000 0.84873  0.50250  0.75193  Biso   1.000  O
  O42      1.0000 0.34873  0.50250  0.74807  Biso   1.000  O
  O43      1.0000 0.88891  0.50250  0.25193  Biso   1.000  O
  O44      1.0000 0.38891  0.50250  0.24807  Biso   1.000  O
  O45      1.0000 0.84873  0.99750  0.75193  Biso   1.000  O
  O46      1.0000 0.34873  0.99750  0.74807  Biso   1.000  O
  O47      1.0000 0.88891  0.99750  0.25193  Biso   1.000  O
  O48      1.0000 0.38891  0.99750  0.24807  Biso   1.000  O
  O49      1.0000 0.84873  0.25000  0.00445  Biso   1.000  O
  O50      1.0000 0.34873  0.25000  0.00054  Biso   1.000  O
  O51      1.0000 0.84873  0.25000  0.49946  Biso   1.000  O
  O52      1.0000 0.34873  0.25000  0.49555  Biso   1.000  O
  O53      1.0000 0.88891  0.75000  0.00445  Biso   1.000  O
  O54      1.0000 0.38891  0.75000  0.00054  Biso   1.000  O
  O55      1.0000 0.88891  0.75000  0.49946  Biso   1.000  O
  O56      1.0000 0.38891  0.75000  0.49555  Biso   1.000  O
  O57      1.0000 0.11109  0.25000  0.99555  Biso   1.000  O
  O58      1.0000 0.61109  0.25000  0.99946  Biso   1.000  O
  O59      1.0000 0.11109  0.25000  0.50054  Biso   1.000  O
  O60      1.0000 0.61109  0.25000  0.50445  Biso   1.000  O
  O61      1.0000 0.15127  0.75000  0.99555  Biso   1.000  O
  O62      1.0000 0.65127  0.75000  0.99946  Biso   1.000  O
  O63      1.0000 0.15127  0.75000  0.50054  Biso   1.000  O
  O64      1.0000 0.65127  0.75000  0.50445  Biso   1.000  O
  O65      1.0000 0.20187  0.47386  0.96585  Biso   1.000  O
  O66      1.0000 0.70187  0.47386  0.98188  Biso   1.000  O
  O67      1.0000 0.20187  0.47386  0.51812  Biso   1.000  O
  O68      1.0000 0.70187  0.47386  0.53415  Biso   1.000  O
  O69      1.0000 0.20187  0.02614  0.96585  Biso   1.000  O
  O70      1.0000 0.70187  0.02614  0.98188  Biso   1.000  O
  O71      1.0000 0.20187  0.02614  0.51812  Biso   1.000  O
  O72      1.0000 0.70187  0.02614  0.53415  Biso   1.000  O
  O73      1.0000 0.79813  0.52614  0.03415  Biso   1.000  O
  O74      1.0000 0.29813  0.52614  0.01812  Biso   1.000  O
  O75      1.0000 0.79813  0.52614  0.48188  Biso   1.000  O
  O76      1.0000 0.29813  0.52614  0.46585  Biso   1.000  O
  O77      1.0000 0.79813  0.97386  0.03415  Biso   1.000  O
  O78      1.0000 0.29813  0.97386  0.01812  Biso   1.000  O
  O79      1.0000 0.79813  0.97386  0.48188  Biso   1.000  O
  O80      1.0000 0.29813  0.97386  0.46585  Biso   1.000  O
