data_image0
_cell_length_a       7.8528
_cell_length_b       7.8528
_cell_length_c       30.3622
_cell_angle_alpha    90
_cell_angle_beta     90
_cell_angle_gamma    90

_symmetry_space_group_name_H-M    "P 1"
_symmetry_int_tables_number       1

loop_
  _symmetry_equiv_pos_as_xyz
  'x, y, z'

loop_
  _atom_site_label
  _atom_site_occupancy
  _atom_site_fract_x
  _atom_site_fract_y
  _atom_site_fract_z
  _atom_site_thermal_displace_type
  _atom_site_B_iso_or_equiv
  _atom_site_type_symbol
  K1       1.0000 0.00000  0.00000  0.32818  Biso   1.000  K
  K2       1.0000 0.00000  0.00000  0.82818  Biso   1.000  K
  K3       1.0000 0.00000  0.50000  0.25000  Biso   1.000  K
  K4       1.0000 0.00000  0.50000  0.75000  Biso   1.000  K
  K5       1.0000 0.50000  0.00000  0.25000  Biso   1.000  K
  K6       1.0000 0.50000  0.00000  0.75000  Biso   1.000  K
  K7       1.0000 0.50000  0.50000  0.17182  Biso   1.000  K
  K8       1.0000 0.50000  0.50000  0.67182  Biso   1.000  K
  Pb1      1.0000 0.00000  0.00000  0.07370  Biso   1.000  Pb
  Pb2      1.0000 0.00000  0.00000  0.58530  Biso   1.000  Pb
  Pb3      1.0000 0.00000  0.50000  0.07917  Biso   1.000  Pb
  Pb4      1.0000 0.00000  0.50000  0.56757  Biso   1.000  Pb
  Pb5      1.0000 0.50000  0.00000  0.06757  Biso   1.000  Pb
  Pb6      1.0000 0.50000  0.00000  0.57917  Biso   1.000  Pb
  Pb7      1.0000 0.50000  0.50000  0.07304  Biso   1.000  Pb
  Pb8      1.0000 0.50000  0.50000  0.56144  Biso   1.000  Pb
  Pb9      1.0000 0.00000  0.50000  0.93243  Biso   1.000  Pb
  Pb10     1.0000 0.00000  0.50000  0.42083  Biso   1.000  Pb
  Pb11     1.0000 0.00000  0.00000  0.92696  Biso   1.000  Pb
  Pb12     1.0000 0.00000  0.00000  0.43856  Biso   1.000  Pb
  Pb13     1.0000 0.50000  0.50000  0.92630  Biso   1.000  Pb
  Pb14     1.0000 0.50000  0.50000  0.41470  Biso   1.000  Pb
  Pb15     1.0000 0.50000  0.00000  0.92083  Biso   1.000  Pb
  Pb16     1.0000 0.50000  0.00000  0.43243  Biso   1.000  Pb
  Nb1      1.0000 0.75000  0.75000  0.00000  Biso   1.000  Nb
  Nb2      1.0000 0.75000  0.75000  0.50000  Biso   1.000  Nb
  Nb3      1.0000 0.75000  0.25000  0.00000  Biso   1.000  Nb
  Nb4      1.0000 0.75000  0.25000  0.50000  Biso   1.000  Nb
  Nb5      1.0000 0.25000  0.75000  0.00000  Biso   1.000  Nb
  Nb6      1.0000 0.25000  0.75000  0.50000  Biso   1.000  Nb
  Nb7      1.0000 0.25000  0.25000  0.00000  Biso   1.000  Nb
  Nb8      1.0000 0.25000  0.25000  0.50000  Biso   1.000  Nb
  Ta1      1.0000 0.74512  0.74624  0.14358  Biso   1.000  Ta
  Ta2      1.0000 0.74512  0.74399  0.64358  Biso   1.000  Ta
  Ta3      1.0000 0.74512  0.25376  0.14358  Biso   1.000  Ta
  Ta4      1.0000 0.74512  0.25601  0.64358  Biso   1.000  Ta
  Ta5      1.0000 0.25488  0.74624  0.14358  Biso   1.000  Ta
  Ta6      1.0000 0.25488  0.74399  0.64358  Biso   1.000  Ta
  Ta7      1.0000 0.25488  0.25376  0.14358  Biso   1.000  Ta
  Ta8      1.0000 0.25488  0.25601  0.64358  Biso   1.000  Ta
  Ta9      1.0000 0.75488  0.75376  0.85642  Biso   1.000  Ta
  Ta10     1.0000 0.75488  0.75601  0.35642  Biso   1.000  Ta
  Ta11     1.0000 0.75488  0.24624  0.85642  Biso   1.000  Ta
  Ta12     1.0000 0.75488  0.24399  0.35642  Biso   1.000  Ta
  Ta13     1.0000 0.24512  0.75376  0.85642  Biso   1.000  Ta
  Ta14     1.0000 0.24512  0.75601  0.35642  Biso   1.000  Ta
  Ta15     1.0000 0.24512  0.24624  0.85642  Biso   1.000  Ta
  Ta16     1.0000 0.24512  0.24399  0.35642  Biso   1.000  Ta
  O1       1.0000 0.75000  0.00000  0.02155  Biso   1.000  O
  O2       1.0000 0.75000  0.00000  0.43547  Biso   1.000  O
  O3       1.0000 0.75000  0.50000  0.97845  Biso   1.000  O
  O4       1.0000 0.75000  0.50000  0.56453  Biso   1.000  O
  O5       1.0000 0.25000  0.00000  0.02155  Biso   1.000  O
  O6       1.0000 0.25000  0.00000  0.43547  Biso   1.000  O
  O7       1.0000 0.25000  0.50000  0.97845  Biso   1.000  O
  O8       1.0000 0.25000  0.50000  0.56453  Biso   1.000  O
  O9       1.0000 0.50000  0.75000  0.02149  Biso   1.000  O
  O10      1.0000 0.50000  0.75000  0.52149  Biso   1.000  O
  O11      1.0000 0.50000  0.25000  0.02149  Biso   1.000  O
  O12      1.0000 0.50000  0.25000  0.52149  Biso   1.000  O
  O13      1.0000 0.00000  0.75000  0.97851  Biso   1.000  O
  O14      1.0000 0.00000  0.75000  0.47851  Biso   1.000  O
  O15      1.0000 0.00000  0.25000  0.97851  Biso   1.000  O
  O16      1.0000 0.00000  0.25000  0.47851  Biso   1.000  O
  O17      1.0000 0.76945  0.73586  0.06512  Biso   1.000  O
  O18      1.0000 0.76945  0.80303  0.56512  Biso   1.000  O
  O19      1.0000 0.76945  0.26414  0.06512  Biso   1.000  O
  O20      1.0000 0.76945  0.19697  0.56512  Biso   1.000  O
  O21      1.0000 0.23055  0.73586  0.06512  Biso   1.000  O
  O22      1.0000 0.23055  0.80303  0.56512  Biso   1.000  O
  O23      1.0000 0.23055  0.26414  0.06512  Biso   1.000  O
  O24      1.0000 0.23055  0.19697  0.56512  Biso   1.000  O
  O25      1.0000 0.73055  0.76414  0.93488  Biso   1.000  O
  O26      1.0000 0.73055  0.69697  0.43488  Biso   1.000  O
  O27      1.0000 0.73055  0.23586  0.93488  Biso   1.000  O
  O28      1.0000 0.73055  0.30303  0.43488  Biso   1.000  O
  O29      1.0000 0.26945  0.76414  0.93488  Biso   1.000  O
  O30      1.0000 0.26945  0.69697  0.43488  Biso   1.000  O
  O31      1.0000 0.26945  0.23586  0.93488  Biso   1.000  O
  O32      1.0000 0.26945  0.30303  0.43488  Biso   1.000  O
  O33      1.0000 0.74750  0.00000  0.13271  Biso   1.000  O
  O34      1.0000 0.74750  0.00000  0.66982  Biso   1.000  O
  O35      1.0000 0.74750  0.50000  0.12965  Biso   1.000  O
  O36      1.0000 0.74750  0.50000  0.59254  Biso   1.000  O
  O37      1.0000 0.25250  0.00000  0.13271  Biso   1.000  O
  O38      1.0000 0.25250  0.00000  0.66982  Biso   1.000  O
  O39      1.0000 0.25250  0.50000  0.12965  Biso   1.000  O
  O40      1.0000 0.25250  0.50000  0.59254  Biso   1.000  O
  O41      1.0000 0.75250  0.50000  0.86729  Biso   1.000  O
  O42      1.0000 0.75250  0.50000  0.33018  Biso   1.000  O
  O43      1.0000 0.75250  0.00000  0.87035  Biso   1.000  O
  O44      1.0000 0.75250  0.00000  0.40746  Biso   1.000  O
  O45      1.0000 0.24750  0.50000  0.86729  Biso   1.000  O
  O46      1.0000 0.24750  0.50000  0.33018  Biso   1.000  O
  O47      1.0000 0.24750  0.00000  0.87035  Biso   1.000  O
  O48      1.0000 0.24750  0.00000  0.40746  Biso   1.000  O
  O49      1.0000 0.50000  0.74839  0.84873  Biso   1.000  O
  O50      1.0000 0.50000  0.75660  0.34873  Biso   1.000  O
  O51      1.0000 0.50000  0.25161  0.84873  Biso   1.000  O
  O52      1.0000 0.50000  0.24340  0.34873  Biso   1.000  O
  O53      1.0000 0.00000  0.74839  0.88891  Biso   1.000  O
  O54      1.0000 0.00000  0.75660  0.38891  Biso   1.000  O
  O55      1.0000 0.00000  0.25161  0.88891  Biso   1.000  O
  O56      1.0000 0.00000  0.24340  0.38891  Biso   1.000  O
  O57      1.0000 0.50000  0.75161  0.11109  Biso   1.000  O
  O58      1.0000 0.50000  0.74340  0.61109  Biso   1.000  O
  O59      1.0000 0.50000  0.24839  0.11109  Biso   1.000  O
  O60      1.0000 0.50000  0.25660  0.61109  Biso   1.000  O
  O61      1.0000 0.00000  0.75161  0.15127  Biso   1.000  O
  O62      1.0000 0.00000  0.74340  0.65127  Biso   1.000  O
  O63      1.0000 0.00000  0.24839  0.15127  Biso   1.000  O
  O64      1.0000 0.00000  0.25660  0.65127  Biso   1.000  O
  O65      1.0000 0.72386  0.73086  0.20187  Biso   1.000  O
  O66      1.0000 0.72386  0.71687  0.70187  Biso   1.000  O
  O67      1.0000 0.72386  0.26914  0.20187  Biso   1.000  O
  O68      1.0000 0.72386  0.28313  0.70187  Biso   1.000  O
  O69      1.0000 0.27614  0.73086  0.20187  Biso   1.000  O
  O70      1.0000 0.27614  0.71687  0.70187  Biso   1.000  O
  O71      1.0000 0.27614  0.26914  0.20187  Biso   1.000  O
  O72      1.0000 0.27614  0.28313  0.70187  Biso   1.000  O
  O73      1.0000 0.77614  0.76914  0.79813  Biso   1.000  O
  O74      1.0000 0.77614  0.78313  0.29813  Biso   1.000  O
  O75      1.0000 0.77614  0.23086  0.79813  Biso   1.000  O
  O76      1.0000 0.77614  0.21687  0.29813  Biso   1.000  O
  O77      1.0000 0.22386  0.76914  0.79813  Biso   1.000  O
  O78      1.0000 0.22386  0.78313  0.29813  Biso   1.000  O
  O79      1.0000 0.22386  0.23086  0.79813  Biso   1.000  O
  O80      1.0000 0.22386  0.21687  0.29813  Biso   1.000  O
