data_image0
_cell_length_a       5.55277
_cell_length_b       5.55277
_cell_length_c       30.3622
_cell_angle_alpha    90
_cell_angle_beta     90
_cell_angle_gamma    90

_symmetry_space_group_name_H-M    "P 1"
_symmetry_int_tables_number       1

loop_
  _symmetry_equiv_pos_as_xyz
  'x, y, z'

loop_
  _atom_site_label
  _atom_site_occupancy
  _atom_site_fract_x
  _atom_site_fract_y
  _atom_site_fract_z
  _atom_site_thermal_displace_type
  _atom_site_B_iso_or_equiv
  _atom_site_type_symbol
  K1       1.0000 0.17472  0.84893  0.75000  Biso   1.000  K
  K2       1.0000 0.17472  0.65107  0.25000  Biso   1.000  K
  K3       1.0000 0.82528  0.34893  0.75000  Biso   1.000  K
  K4       1.0000 0.82528  0.15107  0.25000  Biso   1.000  K
  Pb1      1.0000 0.27485  0.74811  0.92663  Biso   1.000  Pb
  Pb2      1.0000 0.27485  0.75189  0.42663  Biso   1.000  Pb
  Pb3      1.0000 0.72515  0.24811  0.92663  Biso   1.000  Pb
  Pb4      1.0000 0.72515  0.25189  0.42663  Biso   1.000  Pb
  Pb5      1.0000 0.72515  0.25189  0.07337  Biso   1.000  Pb
  Pb6      1.0000 0.72515  0.24811  0.57337  Biso   1.000  Pb
  Pb7      1.0000 0.27485  0.75189  0.07337  Biso   1.000  Pb
  Pb8      1.0000 0.27485  0.74811  0.57337  Biso   1.000  Pb
  Nb1      1.0000 0.74938  0.75000  0.00000  Biso   1.000  Nb
  Nb2      1.0000 0.74938  0.75000  0.50000  Biso   1.000  Nb
  Nb3      1.0000 0.25062  0.25000  0.00000  Biso   1.000  Nb
  Nb4      1.0000 0.25062  0.25000  0.50000  Biso   1.000  Nb
  Ta1      1.0000 0.76164  0.74447  0.85642  Biso   1.000  Ta
  Ta2      1.0000 0.76164  0.75553  0.35642  Biso   1.000  Ta
  Ta3      1.0000 0.23836  0.24447  0.85642  Biso   1.000  Ta
  Ta4      1.0000 0.23836  0.25553  0.35642  Biso   1.000  Ta
  Ta5      1.0000 0.76164  0.75553  0.14358  Biso   1.000  Ta
  Ta6      1.0000 0.76164  0.74447  0.64358  Biso   1.000  Ta
  Ta7      1.0000 0.23836  0.25553  0.14358  Biso   1.000  Ta
  Ta8      1.0000 0.23836  0.24447  0.64358  Biso   1.000  Ta
  O1       1.0000 0.50000  0.00000  0.00000  Biso   1.000  O
  O2       1.0000 0.50000  0.00000  0.50000  Biso   1.000  O
  O3       1.0000 0.00000  0.50000  0.00000  Biso   1.000  O
  O4       1.0000 0.00000  0.50000  0.50000  Biso   1.000  O
  O5       1.0000 0.00000  0.00000  0.00000  Biso   1.000  O
  O6       1.0000 0.00000  0.00000  0.50000  Biso   1.000  O
  O7       1.0000 0.50000  0.50000  0.00000  Biso   1.000  O
  O8       1.0000 0.50000  0.50000  0.50000  Biso   1.000  O
  O9       1.0000 0.73845  0.74876  0.93488  Biso   1.000  O
  O10      1.0000 0.73845  0.75124  0.43488  Biso   1.000  O
  O11      1.0000 0.26155  0.24876  0.93488  Biso   1.000  O
  O12      1.0000 0.26155  0.25124  0.43488  Biso   1.000  O
  O13      1.0000 0.73845  0.75124  0.06512  Biso   1.000  O
  O14      1.0000 0.73845  0.74876  0.56512  Biso   1.000  O
  O15      1.0000 0.26155  0.25124  0.06512  Biso   1.000  O
  O16      1.0000 0.26155  0.24876  0.56512  Biso   1.000  O
  O17      1.0000 0.49999  0.99806  0.86013  Biso   1.000  O
  O18      1.0000 0.50001  0.00194  0.36013  Biso   1.000  O
  O19      1.0000 0.99999  0.49806  0.87751  Biso   1.000  O
  O20      1.0000 0.00001  0.50194  0.37751  Biso   1.000  O
  O21      1.0000 0.00001  0.50194  0.12249  Biso   1.000  O
  O22      1.0000 0.99999  0.49806  0.62249  Biso   1.000  O
  O23      1.0000 0.50001  0.00194  0.13987  Biso   1.000  O
  O24      1.0000 0.49999  0.99806  0.63987  Biso   1.000  O
  O25      1.0000 0.99999  0.00194  0.12249  Biso   1.000  O
  O26      1.0000 0.00001  0.99806  0.62249  Biso   1.000  O
  O27      1.0000 0.49999  0.50194  0.13987  Biso   1.000  O
  O28      1.0000 0.50001  0.49806  0.63987  Biso   1.000  O
  O29      1.0000 0.00001  0.99806  0.87751  Biso   1.000  O
  O30      1.0000 0.99999  0.00194  0.37751  Biso   1.000  O
  O31      1.0000 0.50001  0.49806  0.86013  Biso   1.000  O
  O32      1.0000 0.49999  0.50194  0.36013  Biso   1.000  O
  O33      1.0000 0.78127  0.74198  0.79813  Biso   1.000  O
  O34      1.0000 0.78127  0.75802  0.29813  Biso   1.000  O
  O35      1.0000 0.21873  0.24198  0.79813  Biso   1.000  O
  O36      1.0000 0.21873  0.25802  0.29813  Biso   1.000  O
  O37      1.0000 0.78127  0.75802  0.20187  Biso   1.000  O
  O38      1.0000 0.78127  0.74198  0.70187  Biso   1.000  O
  O39      1.0000 0.21873  0.25802  0.20187  Biso   1.000  O
  O40      1.0000 0.21873  0.24198  0.70187  Biso   1.000  O
