data_image0
_cell_length_a       5.55277
_cell_length_b       30.3622
_cell_length_c       5.55277
_cell_angle_alpha    90
_cell_angle_beta     90
_cell_angle_gamma    90

_symmetry_space_group_name_H-M    "P 1"
_symmetry_int_tables_number       1

loop_
  _symmetry_equiv_pos_as_xyz
  'x, y, z'

loop_
  _atom_site_label
  _atom_site_occupancy
  _atom_site_fract_x
  _atom_site_fract_y
  _atom_site_fract_z
  _atom_site_thermal_displace_type
  _atom_site_B_iso_or_equiv
  _atom_site_type_symbol
  K1       1.0000 0.06526  0.75000  0.40107  Biso   1.000  K
  K2       1.0000 0.93474  0.25000  0.59893  Biso   1.000  K
  K3       1.0000 0.63260  0.75000  0.90107  Biso   1.000  K
  K4       1.0000 0.36740  0.25000  0.09893  Biso   1.000  K
  Pb1      1.0000 0.02620  0.92663  0.50189  Biso   1.000  Pb
  Pb2      1.0000 0.97380  0.42663  0.49811  Biso   1.000  Pb
  Pb3      1.0000 0.47002  0.92663  0.00189  Biso   1.000  Pb
  Pb4      1.0000 0.52998  0.42663  0.99811  Biso   1.000  Pb
  Pb5      1.0000 0.52998  0.07337  0.99811  Biso   1.000  Pb
  Pb6      1.0000 0.47002  0.57337  0.00189  Biso   1.000  Pb
  Pb7      1.0000 0.97380  0.07337  0.49811  Biso   1.000  Pb
  Pb8      1.0000 0.02620  0.57337  0.50189  Biso   1.000  Pb
  Nb1      1.0000 0.00000  0.00000  0.00000  Biso   1.000  Nb
  Nb2      1.0000 0.00000  0.50000  0.00000  Biso   1.000  Nb
  Nb3      1.0000 0.50000  0.00000  0.50000  Biso   1.000  Nb
  Nb4      1.0000 0.50000  0.50000  0.50000  Biso   1.000  Nb
  Ta1      1.0000 0.98801  0.85642  0.00553  Biso   1.000  Ta
  Ta2      1.0000 0.01199  0.35642  0.99447  Biso   1.000  Ta
  Ta3      1.0000 0.50093  0.85642  0.50553  Biso   1.000  Ta
  Ta4      1.0000 0.49907  0.35642  0.49447  Biso   1.000  Ta
  Ta5      1.0000 0.01199  0.14358  0.99447  Biso   1.000  Ta
  Ta6      1.0000 0.98801  0.64358  0.00553  Biso   1.000  Ta
  Ta7      1.0000 0.49907  0.14358  0.49447  Biso   1.000  Ta
  Ta8      1.0000 0.50093  0.64358  0.50553  Biso   1.000  Ta
  O1       1.0000 0.25000  0.02055  0.75000  Biso   1.000  O
  O2       1.0000 0.25000  0.47945  0.75000  Biso   1.000  O
  O3       1.0000 0.75000  0.97945  0.25000  Biso   1.000  O
  O4       1.0000 0.75000  0.52055  0.25000  Biso   1.000  O
  O5       1.0000 0.25000  0.02055  0.25000  Biso   1.000  O
  O6       1.0000 0.25000  0.47945  0.25000  Biso   1.000  O
  O7       1.0000 0.75000  0.97945  0.75000  Biso   1.000  O
  O8       1.0000 0.75000  0.52055  0.75000  Biso   1.000  O
  O9       1.0000 0.03793  0.93488  0.00124  Biso   1.000  O
  O10      1.0000 0.96207  0.43488  0.99876  Biso   1.000  O
  O11      1.0000 0.45958  0.93488  0.50124  Biso   1.000  O
  O12      1.0000 0.54042  0.43488  0.49876  Biso   1.000  O
  O13      1.0000 0.96207  0.06512  0.99876  Biso   1.000  O
  O14      1.0000 0.03793  0.56512  0.00124  Biso   1.000  O
  O15      1.0000 0.54042  0.06512  0.49876  Biso   1.000  O
  O16      1.0000 0.45958  0.56512  0.50124  Biso   1.000  O
  O17      1.0000 0.24807  0.85689  0.75193  Biso   1.000  O
  O18      1.0000 0.25193  0.38075  0.74807  Biso   1.000  O
  O19      1.0000 0.74807  0.88075  0.25193  Biso   1.000  O
  O20      1.0000 0.75193  0.35689  0.24807  Biso   1.000  O
  O21      1.0000 0.75193  0.14311  0.24807  Biso   1.000  O
  O22      1.0000 0.74807  0.61925  0.25193  Biso   1.000  O
  O23      1.0000 0.25193  0.11925  0.74807  Biso   1.000  O
  O24      1.0000 0.24807  0.64311  0.75193  Biso   1.000  O
  O25      1.0000 0.25195  0.11925  0.24805  Biso   1.000  O
  O26      1.0000 0.24805  0.64311  0.25195  Biso   1.000  O
  O27      1.0000 0.75195  0.14311  0.74805  Biso   1.000  O
  O28      1.0000 0.74805  0.61925  0.75195  Biso   1.000  O
  O29      1.0000 0.24805  0.85689  0.25195  Biso   1.000  O
  O30      1.0000 0.25195  0.38075  0.24805  Biso   1.000  O
  O31      1.0000 0.74805  0.88075  0.75195  Biso   1.000  O
  O32      1.0000 0.75195  0.35689  0.74805  Biso   1.000  O
  O33      1.0000 0.96645  0.79813  0.00802  Biso   1.000  O
  O34      1.0000 0.03355  0.29813  0.99198  Biso   1.000  O
  O35      1.0000 0.51752  0.79813  0.50802  Biso   1.000  O
  O36      1.0000 0.48248  0.29813  0.49198  Biso   1.000  O
  O37      1.0000 0.03355  0.20187  0.99198  Biso   1.000  O
  O38      1.0000 0.96645  0.70187  0.00802  Biso   1.000  O
  O39      1.0000 0.48248  0.20187  0.49198  Biso   1.000  O
  O40      1.0000 0.51752  0.70187  0.50802  Biso   1.000  O
