data_image0
_cell_length_a       3.9264
_cell_length_b       30.3622
_cell_length_c       7.8528
_cell_angle_alpha    90
_cell_angle_beta     90
_cell_angle_gamma    90

_symmetry_space_group_name_H-M    "P 1"
_symmetry_int_tables_number       1

loop_
  _symmetry_equiv_pos_as_xyz
  'x, y, z'

loop_
  _atom_site_label
  _atom_site_occupancy
  _atom_site_fract_x
  _atom_site_fract_y
  _atom_site_fract_z
  _atom_site_thermal_displace_type
  _atom_site_B_iso_or_equiv
  _atom_site_type_symbol
  K1       1.0000 0.40107  0.30906  0.54947  Biso   1.000  K
  K2       1.0000 0.59893  0.69094  0.45053  Biso   1.000  K
  K3       1.0000 0.40107  0.19094  0.04947  Biso   1.000  K
  K4       1.0000 0.59893  0.80906  0.95053  Biso   1.000  K
  Pb1      1.0000 0.50189  0.07680  0.49906  Biso   1.000  Pb
  Pb2      1.0000 0.49811  0.56994  0.50094  Biso   1.000  Pb
  Pb3      1.0000 0.50189  0.06994  0.99906  Biso   1.000  Pb
  Pb4      1.0000 0.49811  0.57680  0.00094  Biso   1.000  Pb
  Pb5      1.0000 0.49811  0.92320  0.50094  Biso   1.000  Pb
  Pb6      1.0000 0.50189  0.43006  0.49906  Biso   1.000  Pb
  Pb7      1.0000 0.49811  0.93006  0.00094  Biso   1.000  Pb
  Pb8      1.0000 0.50189  0.42320  0.99906  Biso   1.000  Pb
  Nb1      1.0000 1.00000  0.00000  0.74821  Biso   1.000  Nb
  Nb2      1.0000 0.00000  0.50000  0.75179  Biso   1.000  Nb
  Nb3      1.0000 0.00000  0.00000  0.25179  Biso   1.000  Nb
  Nb4      1.0000 1.00000  0.50000  0.24821  Biso   1.000  Nb
  Ta1      1.0000 0.00553  0.14358  0.75250  Biso   1.000  Ta
  Ta2      1.0000 0.99447  0.64358  0.74750  Biso   1.000  Ta
  Ta3      1.0000 0.00553  0.14358  0.24197  Biso   1.000  Ta
  Ta4      1.0000 0.99447  0.64358  0.25803  Biso   1.000  Ta
  Ta5      1.0000 0.99447  0.85642  0.75803  Biso   1.000  Ta
  Ta6      1.0000 0.00553  0.35642  0.74197  Biso   1.000  Ta
  Ta7      1.0000 0.99447  0.85642  0.24750  Biso   1.000  Ta
  Ta8      1.0000 0.00553  0.35642  0.25250  Biso   1.000  Ta
  O1       1.0000 0.50000  0.00000  0.75074  Biso   1.000  O
  O2       1.0000 0.50000  0.50000  0.74926  Biso   1.000  O
  O3       1.0000 0.50000  0.00000  0.24926  Biso   1.000  O
  O4       1.0000 0.50000  0.50000  0.25074  Biso   1.000  O
  O5       1.0000 0.00000  0.00000  0.00000  Biso   1.000  O
  O6       1.0000 0.00000  0.50000  0.00000  Biso   1.000  O
  O7       1.0000 0.00000  0.00000  0.50000  Biso   1.000  O
  O8       1.0000 0.00000  0.50000  0.50000  Biso   1.000  O
  O9       1.0000 0.00124  0.06512  0.74338  Biso   1.000  O
  O10      1.0000 0.99876  0.56512  0.75662  Biso   1.000  O
  O11      1.0000 0.00124  0.06512  0.25538  Biso   1.000  O
  O12      1.0000 0.99876  0.56512  0.24462  Biso   1.000  O
  O13      1.0000 0.99876  0.93488  0.74462  Biso   1.000  O
  O14      1.0000 0.00124  0.43488  0.75538  Biso   1.000  O
  O15      1.0000 0.99876  0.93488  0.25662  Biso   1.000  O
  O16      1.0000 0.00124  0.43488  0.24338  Biso   1.000  O
  O17      1.0000 0.50193  0.13118  0.75039  Biso   1.000  O
  O18      1.0000 0.49807  0.63118  0.74961  Biso   1.000  O
  O19      1.0000 0.50193  0.13118  0.24766  Biso   1.000  O
  O20      1.0000 0.49807  0.63118  0.25234  Biso   1.000  O
  O21      1.0000 0.49807  0.86882  0.75234  Biso   1.000  O
  O22      1.0000 0.50193  0.36882  0.74766  Biso   1.000  O
  O23      1.0000 0.49807  0.86882  0.24961  Biso   1.000  O
  O24      1.0000 0.50193  0.36882  0.25039  Biso   1.000  O
  O25      1.0000 0.99805  0.88132  0.00097  Biso   1.000  O
  O26      1.0000 0.00195  0.35632  0.99903  Biso   1.000  O
  O27      1.0000 0.99805  0.85632  0.50097  Biso   1.000  O
  O28      1.0000 0.00195  0.38132  0.49903  Biso   1.000  O
  O29      1.0000 0.00195  0.11868  0.99903  Biso   1.000  O
  O30      1.0000 0.99805  0.64368  0.00097  Biso   1.000  O
  O31      1.0000 0.00195  0.14368  0.49903  Biso   1.000  O
  O32      1.0000 0.99805  0.61868  0.50097  Biso   1.000  O
  O33      1.0000 0.00802  0.20187  0.76878  Biso   1.000  O
  O34      1.0000 0.99198  0.70187  0.73122  Biso   1.000  O
  O35      1.0000 0.00802  0.20187  0.22320  Biso   1.000  O
  O36      1.0000 0.99198  0.70187  0.27680  Biso   1.000  O
  O37      1.0000 0.99198  0.79813  0.77680  Biso   1.000  O
  O38      1.0000 0.00802  0.29813  0.72320  Biso   1.000  O
  O39      1.0000 0.99198  0.79813  0.23122  Biso   1.000  O
  O40      1.0000 0.00802  0.29813  0.26878  Biso   1.000  O
