data_image0
_cell_length_a       7.8528
_cell_length_b       3.9264
_cell_length_c       30.3622
_cell_angle_alpha    90
_cell_angle_beta     90
_cell_angle_gamma    90

_symmetry_space_group_name_H-M    "P 1"
_symmetry_int_tables_number       1

loop_
  _symmetry_equiv_pos_as_xyz
  'x, y, z'

loop_
  _atom_site_label
  _atom_site_occupancy
  _atom_site_fract_x
  _atom_site_fract_y
  _atom_site_fract_z
  _atom_site_thermal_displace_type
  _atom_site_B_iso_or_equiv
  _atom_site_type_symbol
  K1       1.0000 0.00000  0.00000  0.50000  Biso   1.000  K
  K2       1.0000 0.00000  0.00000  0.00000  Biso   1.000  K
  K3       1.0000 0.50000  0.00000  0.50000  Biso   1.000  K
  K4       1.0000 0.50000  0.00000  0.00000  Biso   1.000  K
  Pb1      1.0000 0.00000  0.01931  0.68243  Biso   1.000  Pb
  Pb2      1.0000 0.00000  0.98069  0.17083  Biso   1.000  Pb
  Pb3      1.0000 0.50000  0.01931  0.67083  Biso   1.000  Pb
  Pb4      1.0000 0.50000  0.98069  0.18243  Biso   1.000  Pb
  Pb5      1.0000 0.50000  0.01931  0.81757  Biso   1.000  Pb
  Pb6      1.0000 0.50000  0.98069  0.32917  Biso   1.000  Pb
  Pb7      1.0000 0.00000  0.01931  0.82917  Biso   1.000  Pb
  Pb8      1.0000 0.00000  0.98069  0.31757  Biso   1.000  Pb
  Nb1      1.0000 0.75000  0.50000  0.75000  Biso   1.000  Nb
  Nb2      1.0000 0.75000  0.50000  0.25000  Biso   1.000  Nb
  Nb3      1.0000 0.25000  0.50000  0.75000  Biso   1.000  Nb
  Nb4      1.0000 0.25000  0.50000  0.25000  Biso   1.000  Nb
  Ta1      1.0000 0.75113  0.58024  0.60642  Biso   1.000  Ta
  Ta2      1.0000 0.74887  0.41976  0.10642  Biso   1.000  Ta
  Ta3      1.0000 0.24887  0.58024  0.60642  Biso   1.000  Ta
  Ta4      1.0000 0.25113  0.41976  0.10642  Biso   1.000  Ta
  Ta5      1.0000 0.74887  0.58024  0.89358  Biso   1.000  Ta
  Ta6      1.0000 0.75113  0.41976  0.39358  Biso   1.000  Ta
  Ta7      1.0000 0.25113  0.58024  0.89358  Biso   1.000  Ta
  Ta8      1.0000 0.24887  0.41976  0.39358  Biso   1.000  Ta
  O1       1.0000 0.00000  0.59672  0.70696  Biso   1.000  O
  O2       1.0000 0.00000  0.40328  0.29304  Biso   1.000  O
  O3       1.0000 0.50000  0.59672  0.79304  Biso   1.000  O
  O4       1.0000 0.50000  0.40328  0.20696  Biso   1.000  O
  O5       1.0000 0.75000  0.05202  0.75000  Biso   1.000  O
  O6       1.0000 0.75000  0.94798  0.25000  Biso   1.000  O
  O7       1.0000 0.25000  0.05202  0.75000  Biso   1.000  O
  O8       1.0000 0.25000  0.94798  0.25000  Biso   1.000  O
  O9       1.0000 0.71641  0.56017  0.68488  Biso   1.000  O
  O10      1.0000 0.78359  0.43983  0.18488  Biso   1.000  O
  O11      1.0000 0.28359  0.56017  0.68488  Biso   1.000  O
  O12      1.0000 0.21641  0.43983  0.18488  Biso   1.000  O
  O13      1.0000 0.78359  0.56017  0.81512  Biso   1.000  O
  O14      1.0000 0.71641  0.43983  0.31512  Biso   1.000  O
  O15      1.0000 0.21641  0.56017  0.81512  Biso   1.000  O
  O16      1.0000 0.28359  0.43983  0.31512  Biso   1.000  O
  O17      1.0000 0.00000  0.53753  0.63738  Biso   1.000  O
  O18      1.0000 0.00000  0.46247  0.10026  Biso   1.000  O
  O19      1.0000 0.50000  0.53753  0.60026  Biso   1.000  O
  O20      1.0000 0.50000  0.46247  0.13738  Biso   1.000  O
  O21      1.0000 0.50000  0.53753  0.86262  Biso   1.000  O
  O22      1.0000 0.50000  0.46247  0.39974  Biso   1.000  O
  O23      1.0000 0.00000  0.53753  0.89974  Biso   1.000  O
  O24      1.0000 0.00000  0.46247  0.36262  Biso   1.000  O
  O25      1.0000 0.74589  0.03225  0.88118  Biso   1.000  O
  O26      1.0000 0.75411  0.96775  0.38118  Biso   1.000  O
  O27      1.0000 0.25411  0.03225  0.88118  Biso   1.000  O
  O28      1.0000 0.24589  0.96775  0.38118  Biso   1.000  O
  O29      1.0000 0.75411  0.03225  0.61882  Biso   1.000  O
  O30      1.0000 0.74589  0.96775  0.11882  Biso   1.000  O
  O31      1.0000 0.24589  0.03225  0.61882  Biso   1.000  O
  O32      1.0000 0.25411  0.96775  0.11882  Biso   1.000  O
  O33      1.0000 0.75700  0.53297  0.54813  Biso   1.000  O
  O34      1.0000 0.74300  0.46703  0.04813  Biso   1.000  O
  O35      1.0000 0.24300  0.53297  0.54813  Biso   1.000  O
  O36      1.0000 0.25700  0.46703  0.04813  Biso   1.000  O
  O37      1.0000 0.74300  0.53297  0.95187  Biso   1.000  O
  O38      1.0000 0.75700  0.46703  0.45187  Biso   1.000  O
  O39      1.0000 0.25700  0.53297  0.95187  Biso   1.000  O
  O40      1.0000 0.24300  0.46703  0.45187  Biso   1.000  O
