data_image0
_cell_length_a       7.80961
_cell_length_b       7.80961
_cell_length_c       30.2894
_cell_angle_alpha    90
_cell_angle_beta     90
_cell_angle_gamma    90

_symmetry_space_group_name_H-M    "P 1"
_symmetry_int_tables_number       1

loop_
  _symmetry_equiv_pos_as_xyz
  'x, y, z'

loop_
  _atom_site_label
  _atom_site_occupancy
  _atom_site_fract_x
  _atom_site_fract_y
  _atom_site_fract_z
  _atom_site_thermal_displace_type
  _atom_site_B_iso_or_equiv
  _atom_site_type_symbol
  Cs1      1.0000 0.25290  0.25000  0.25000  Biso   1.000  Cs
  Cs2      1.0000 0.74710  0.25000  0.25000  Biso   1.000  Cs
  Cs3      1.0000 0.24710  0.75000  0.25000  Biso   1.000  Cs
  Cs4      1.0000 0.75290  0.75000  0.25000  Biso   1.000  Cs
  Cs5      1.0000 0.25290  0.25000  0.75000  Biso   1.000  Cs
  Cs6      1.0000 0.74710  0.25000  0.75000  Biso   1.000  Cs
  Cs7      1.0000 0.24710  0.75000  0.75000  Biso   1.000  Cs
  Cs8      1.0000 0.75290  0.75000  0.75000  Biso   1.000  Cs
  Ca1      1.0000 0.27834  0.25000  0.07405  Biso   1.000  Ca
  Ca2      1.0000 0.72166  0.25000  0.07405  Biso   1.000  Ca
  Ca3      1.0000 0.22166  0.75000  0.07405  Biso   1.000  Ca
  Ca4      1.0000 0.77834  0.75000  0.07405  Biso   1.000  Ca
  Ca5      1.0000 0.27834  0.25000  0.57405  Biso   1.000  Ca
  Ca6      1.0000 0.72166  0.25000  0.57405  Biso   1.000  Ca
  Ca7      1.0000 0.22166  0.75000  0.57405  Biso   1.000  Ca
  Ca8      1.0000 0.77834  0.75000  0.57405  Biso   1.000  Ca
  Ca9      1.0000 0.27834  0.25000  0.42595  Biso   1.000  Ca
  Ca10     1.0000 0.72166  0.25000  0.42595  Biso   1.000  Ca
  Ca11     1.0000 0.22166  0.75000  0.42595  Biso   1.000  Ca
  Ca12     1.0000 0.77834  0.75000  0.42595  Biso   1.000  Ca
  Ca13     1.0000 0.27834  0.25000  0.92595  Biso   1.000  Ca
  Ca14     1.0000 0.72166  0.25000  0.92595  Biso   1.000  Ca
  Ca15     1.0000 0.22166  0.75000  0.92595  Biso   1.000  Ca
  Ca16     1.0000 0.77834  0.75000  0.92595  Biso   1.000  Ca
  Nb1      1.0000 1.00000  0.99731  0.00000  Biso   1.000  Nb
  Nb2      1.0000 0.50000  0.00269  0.00000  Biso   1.000  Nb
  Nb3      1.0000 0.00000  0.50269  0.00000  Biso   1.000  Nb
  Nb4      1.0000 0.50000  0.49731  0.00000  Biso   1.000  Nb
  Nb5      1.0000 1.00000  0.99731  0.50000  Biso   1.000  Nb
  Nb6      1.0000 0.50000  0.00269  0.50000  Biso   1.000  Nb
  Nb7      1.0000 0.00000  0.50269  0.50000  Biso   1.000  Nb
  Nb8      1.0000 0.50000  0.49731  0.50000  Biso   1.000  Nb
  Nb9      1.0000 0.00000  0.00796  0.13883  Biso   1.000  Nb
  Nb10     1.0000 0.50000  0.99204  0.13883  Biso   1.000  Nb
  Nb11     1.0000 1.00000  0.49204  0.13883  Biso   1.000  Nb
  Nb12     1.0000 0.50000  0.50796  0.13883  Biso   1.000  Nb
  Nb13     1.0000 0.00000  0.00796  0.63883  Biso   1.000  Nb
  Nb14     1.0000 0.50000  0.99204  0.63883  Biso   1.000  Nb
  Nb15     1.0000 1.00000  0.49204  0.63883  Biso   1.000  Nb
  Nb16     1.0000 0.50000  0.50796  0.63883  Biso   1.000  Nb
  Nb17     1.0000 0.00000  0.00796  0.36117  Biso   1.000  Nb
  Nb18     1.0000 0.50000  0.99204  0.36117  Biso   1.000  Nb
  Nb19     1.0000 1.00000  0.49204  0.36117  Biso   1.000  Nb
  Nb20     1.0000 0.50000  0.50796  0.36117  Biso   1.000  Nb
  Nb21     1.0000 0.00000  0.00796  0.86117  Biso   1.000  Nb
  Nb22     1.0000 0.50000  0.99204  0.86117  Biso   1.000  Nb
  Nb23     1.0000 1.00000  0.49204  0.86117  Biso   1.000  Nb
  Nb24     1.0000 0.50000  0.50796  0.86117  Biso   1.000  Nb
  O1       1.0000 0.00000  0.25000  0.00000  Biso   1.000  O
  O2       1.0000 0.50000  0.25000  0.00000  Biso   1.000  O
  O3       1.0000 0.00000  0.75000  0.00000  Biso   1.000  O
  O4       1.0000 0.50000  0.75000  0.00000  Biso   1.000  O
  O5       1.0000 0.00000  0.25000  0.50000  Biso   1.000  O
  O6       1.0000 0.50000  0.25000  0.50000  Biso   1.000  O
  O7       1.0000 0.00000  0.75000  0.50000  Biso   1.000  O
  O8       1.0000 0.50000  0.75000  0.50000  Biso   1.000  O
  O9       1.0000 0.25000  0.00000  0.00000  Biso   1.000  O
  O10      1.0000 0.75000  0.00000  0.00000  Biso   1.000  O
  O11      1.0000 0.25000  0.50000  0.00000  Biso   1.000  O
  O12      1.0000 0.75000  0.50000  0.00000  Biso   1.000  O
  O13      1.0000 0.25000  0.00000  0.50000  Biso   1.000  O
  O14      1.0000 0.75000  0.00000  0.50000  Biso   1.000  O
  O15      1.0000 0.25000  0.50000  0.50000  Biso   1.000  O
  O16      1.0000 0.75000  0.50000  0.50000  Biso   1.000  O
  O17      1.0000 1.00000  0.97543  0.06408  Biso   1.000  O
  O18      1.0000 0.50000  0.02457  0.06408  Biso   1.000  O
  O19      1.0000 0.00000  0.52457  0.06408  Biso   1.000  O
  O20      1.0000 0.50000  0.47543  0.06408  Biso   1.000  O
  O21      1.0000 1.00000  0.97543  0.56408  Biso   1.000  O
  O22      1.0000 0.50000  0.02457  0.56408  Biso   1.000  O
  O23      1.0000 0.00000  0.52457  0.56408  Biso   1.000  O
  O24      1.0000 0.50000  0.47543  0.56408  Biso   1.000  O
  O25      1.0000 1.00000  0.97543  0.43592  Biso   1.000  O
  O26      1.0000 0.50000  0.02457  0.43592  Biso   1.000  O
  O27      1.0000 0.00000  0.52457  0.43592  Biso   1.000  O
  O28      1.0000 0.50000  0.47543  0.43592  Biso   1.000  O
  O29      1.0000 1.00000  0.97543  0.93592  Biso   1.000  O
  O30      1.0000 0.50000  0.02457  0.93592  Biso   1.000  O
  O31      1.0000 0.00000  0.52457  0.93592  Biso   1.000  O
  O32      1.0000 0.50000  0.47543  0.93592  Biso   1.000  O
  O33      1.0000 0.00000  0.25000  0.12023  Biso   1.000  O
  O34      1.0000 0.50000  0.25000  0.12967  Biso   1.000  O
  O35      1.0000 0.00000  0.75000  0.12967  Biso   1.000  O
  O36      1.0000 0.50000  0.75000  0.12023  Biso   1.000  O
  O37      1.0000 0.00000  0.25000  0.62023  Biso   1.000  O
  O38      1.0000 0.50000  0.25000  0.62967  Biso   1.000  O
  O39      1.0000 0.00000  0.75000  0.62967  Biso   1.000  O
  O40      1.0000 0.50000  0.75000  0.62023  Biso   1.000  O
  O41      1.0000 0.25000  0.00000  0.12495  Biso   1.000  O
  O42      1.0000 0.75000  0.00000  0.12495  Biso   1.000  O
  O43      1.0000 0.25000  0.50000  0.12495  Biso   1.000  O
  O44      1.0000 0.75000  0.50000  0.12495  Biso   1.000  O
  O45      1.0000 0.25000  0.00000  0.62495  Biso   1.000  O
  O46      1.0000 0.75000  0.00000  0.62495  Biso   1.000  O
  O47      1.0000 0.25000  0.50000  0.62495  Biso   1.000  O
  O48      1.0000 0.75000  0.50000  0.62495  Biso   1.000  O
  O49      1.0000 0.00000  0.25000  0.37977  Biso   1.000  O
  O50      1.0000 0.50000  0.25000  0.37033  Biso   1.000  O
  O51      1.0000 1.00000  0.75000  0.37033  Biso   1.000  O
  O52      1.0000 0.50000  0.75000  0.37977  Biso   1.000  O
  O53      1.0000 0.00000  0.25000  0.87977  Biso   1.000  O
  O54      1.0000 0.50000  0.25000  0.87033  Biso   1.000  O
  O55      1.0000 1.00000  0.75000  0.87033  Biso   1.000  O
  O56      1.0000 0.50000  0.75000  0.87977  Biso   1.000  O
  O57      1.0000 0.25000  1.00000  0.37505  Biso   1.000  O
  O58      1.0000 0.75000  0.00000  0.37505  Biso   1.000  O
  O59      1.0000 0.25000  0.50000  0.37505  Biso   1.000  O
  O60      1.0000 0.75000  0.50000  0.37505  Biso   1.000  O
  O61      1.0000 0.25000  1.00000  0.87505  Biso   1.000  O
  O62      1.0000 0.75000  0.00000  0.87505  Biso   1.000  O
  O63      1.0000 0.25000  0.50000  0.87505  Biso   1.000  O
  O64      1.0000 0.75000  0.50000  0.87505  Biso   1.000  O
  O65      1.0000 0.00000  0.01398  0.19732  Biso   1.000  O
  O66      1.0000 0.50000  0.98602  0.19732  Biso   1.000  O
  O67      1.0000 1.00000  0.48602  0.19732  Biso   1.000  O
  O68      1.0000 0.50000  0.51398  0.19732  Biso   1.000  O
  O69      1.0000 0.00000  0.01398  0.69732  Biso   1.000  O
  O70      1.0000 0.50000  0.98602  0.69732  Biso   1.000  O
  O71      1.0000 1.00000  0.48602  0.69732  Biso   1.000  O
  O72      1.0000 0.50000  0.51398  0.69732  Biso   1.000  O
  O73      1.0000 0.00000  0.01398  0.30268  Biso   1.000  O
  O74      1.0000 0.50000  0.98602  0.30268  Biso   1.000  O
  O75      1.0000 1.00000  0.48602  0.30268  Biso   1.000  O
  O76      1.0000 0.50000  0.51398  0.30268  Biso   1.000  O
  O77      1.0000 0.00000  0.01398  0.80268  Biso   1.000  O
  O78      1.0000 0.50000  0.98602  0.80268  Biso   1.000  O
  O79      1.0000 1.00000  0.48602  0.80268  Biso   1.000  O
  O80      1.0000 0.50000  0.51398  0.80268  Biso   1.000  O
