data_image0
_cell_length_a       15.6806
_cell_length_b       15.6806
_cell_length_c       15.6806
_cell_angle_alpha    159.603
_cell_angle_beta     159.603
_cell_angle_gamma    29.0021

_symmetry_space_group_name_H-M    "P 1"
_symmetry_int_tables_number       1

loop_
  _symmetry_equiv_pos_as_xyz
  'x, y, z'

loop_
  _atom_site_label
  _atom_site_occupancy
  _atom_site_fract_x
  _atom_site_fract_y
  _atom_site_fract_z
  _atom_site_thermal_displace_type
  _atom_site_B_iso_or_equiv
  _atom_site_type_symbol
  K1       1.0000 0.75000  0.96633  0.21633  Biso   1.000  K
  K2       1.0000 0.25000  0.53367  0.28367  Biso   1.000  K
  Pb1      1.0000 0.61836  0.85146  0.32308  Biso   1.000  Pb
  Pb2      1.0000 0.02838  0.29528  0.17692  Biso   1.000  Pb
  Pb3      1.0000 0.88164  0.20472  0.23310  Biso   1.000  Pb
  Pb4      1.0000 0.47162  0.64854  0.26690  Biso   1.000  Pb
  Nb1      1.0000 0.99577  0.75000  0.74577  Biso   1.000  Nb
  Nb2      1.0000 0.50423  0.25000  0.75423  Biso   1.000  Nb
  Ta1      1.0000 0.15608  0.88712  0.75604  Biso   1.000  Ta
  Ta2      1.0000 0.63108  0.40004  0.74396  Biso   1.000  Ta
  Ta3      1.0000 0.86892  0.61288  0.76896  Biso   1.000  Ta
  Ta4      1.0000 0.34392  0.09996  0.73104  Biso   1.000  Ta
  O1       1.0000 0.72945  0.97945  0.75000  Biso   1.000  O
  O2       1.0000 0.27055  0.52055  0.75000  Biso   1.000  O
  O3       1.0000 0.22945  0.97945  0.25000  Biso   1.000  O
  O4       1.0000 0.77055  0.52055  0.25000  Biso   1.000  O
  O5       1.0000 0.02624  0.85429  0.75029  Biso   1.000  O
  O6       1.0000 0.60400  0.27595  0.74971  Biso   1.000  O
  O7       1.0000 0.89600  0.64571  0.67195  Biso   1.000  O
  O8       1.0000 0.47376  0.22405  0.82805  Biso   1.000  O
  O9       1.0000 0.90749  0.15749  0.75000  Biso   1.000  O
  O10      1.0000 0.35487  0.60487  0.75000  Biso   1.000  O
  O11      1.0000 0.12127  0.37127  0.75000  Biso   1.000  O
  O12      1.0000 0.61637  0.86637  0.75000  Biso   1.000  O
  O13      1.0000 0.14513  0.89513  0.25000  Biso   1.000  O
  O14      1.0000 0.59251  0.34251  0.25000  Biso   1.000  O
  O15      1.0000 0.37873  0.12873  0.25000  Biso   1.000  O
  O16      1.0000 0.88363  0.63363  0.25000  Biso   1.000  O
  O17      1.0000 0.22357  0.92633  0.74616  Biso   1.000  O
  O18      1.0000 0.68017  0.47741  0.75384  Biso   1.000  O
  O19      1.0000 0.81983  0.57367  0.79724  Biso   1.000  O
  O20      1.0000 0.27643  0.02259  0.70276  Biso   1.000  O
