data_image0
_cell_length_a       15.6806
_cell_length_b       15.6806
_cell_length_c       7.8528
_cell_angle_alpha    90
_cell_angle_beta     90
_cell_angle_gamma    29.0021

_symmetry_space_group_name_H-M    "P 1"
_symmetry_int_tables_number       1

loop_
  _symmetry_equiv_pos_as_xyz
  'x, y, z'

loop_
  _atom_site_label
  _atom_site_occupancy
  _atom_site_fract_x
  _atom_site_fract_y
  _atom_site_fract_z
  _atom_site_thermal_displace_type
  _atom_site_B_iso_or_equiv
  _atom_site_type_symbol
  K1       1.0000 0.78367  0.21633  0.42930  Biso   1.000  K
  K2       1.0000 0.21633  0.78367  0.57070  Biso   1.000  K
  K3       1.0000 0.71633  0.28367  0.92930  Biso   1.000  K
  K4       1.0000 0.28367  0.71633  0.07070  Biso   1.000  K
  Pb1      1.0000 0.54528  0.10146  0.49970  Biso   1.000  Pb
  Pb2      1.0000 0.10146  0.54528  0.50030  Biso   1.000  Pb
  Pb3      1.0000 0.60146  0.04528  0.99970  Biso   1.000  Pb
  Pb4      1.0000 0.04528  0.60146  0.00030  Biso   1.000  Pb
  Pb5      1.0000 0.89854  0.45472  0.49970  Biso   1.000  Pb
  Pb6      1.0000 0.45472  0.89854  0.50030  Biso   1.000  Pb
  Pb7      1.0000 0.95472  0.39854  0.99970  Biso   1.000  Pb
  Pb8      1.0000 0.39854  0.95472  0.00030  Biso   1.000  Pb
  Nb1      1.0000 0.75000  0.75000  0.75000  Biso   1.000  Nb
  Nb2      1.0000 0.25000  0.25000  0.75000  Biso   1.000  Nb
  Nb3      1.0000 0.75000  0.75000  0.25000  Biso   1.000  Nb
  Nb4      1.0000 0.25000  0.25000  0.25000  Biso   1.000  Nb
  Ta1      1.0000 0.89358  0.89358  0.74354  Biso   1.000  Ta
  Ta2      1.0000 0.39358  0.39358  0.75646  Biso   1.000  Ta
  Ta3      1.0000 0.89358  0.89358  0.25646  Biso   1.000  Ta
  Ta4      1.0000 0.39358  0.39358  0.24354  Biso   1.000  Ta
  Ta5      1.0000 0.60642  0.60642  0.75646  Biso   1.000  Ta
  Ta6      1.0000 0.10642  0.10642  0.74354  Biso   1.000  Ta
  Ta7      1.0000 0.60642  0.60642  0.24354  Biso   1.000  Ta
  Ta8      1.0000 0.10642  0.10642  0.25646  Biso   1.000  Ta
  O1       1.0000 0.50000  0.00000  0.75000  Biso   1.000  O
  O2       1.0000 0.00000  0.50000  0.75000  Biso   1.000  O
  O3       1.0000 0.50000  0.00000  0.25000  Biso   1.000  O
  O4       1.0000 0.00000  0.50000  0.25000  Biso   1.000  O
  O5       1.0000 0.70889  0.70889  0.00000  Biso   1.000  O
  O6       1.0000 0.29111  0.29111  0.00000  Biso   1.000  O
  O7       1.0000 0.79111  0.79111  0.50000  Biso   1.000  O
  O8       1.0000 0.20889  0.20889  0.50000  Biso   1.000  O
  O9       1.0000 0.81512  0.81512  0.78917  Biso   1.000  O
  O10      1.0000 0.31512  0.31512  0.71083  Biso   1.000  O
  O11      1.0000 0.81512  0.81512  0.21083  Biso   1.000  O
  O12      1.0000 0.31512  0.31512  0.28917  Biso   1.000  O
  O13      1.0000 0.68488  0.68488  0.71083  Biso   1.000  O
  O14      1.0000 0.18488  0.18488  0.78917  Biso   1.000  O
  O15      1.0000 0.68488  0.68488  0.28917  Biso   1.000  O
  O16      1.0000 0.18488  0.18488  0.21083  Biso   1.000  O
  O17      1.0000 0.63118  0.13118  0.75039  Biso   1.000  O
  O18      1.0000 0.13118  0.63118  0.74961  Biso   1.000  O
  O19      1.0000 0.63118  0.13118  0.25039  Biso   1.000  O
  O20      1.0000 0.13118  0.63118  0.24961  Biso   1.000  O
  O21      1.0000 0.86882  0.36882  0.75039  Biso   1.000  O
  O22      1.0000 0.36882  0.86882  0.74961  Biso   1.000  O
  O23      1.0000 0.86882  0.36882  0.25039  Biso   1.000  O
  O24      1.0000 0.36882  0.86882  0.24961  Biso   1.000  O
  O25      1.0000 0.64268  0.64268  0.00000  Biso   1.000  O
  O26      1.0000 0.09496  0.09496  0.00000  Biso   1.000  O
  O27      1.0000 0.59496  0.59496  0.50000  Biso   1.000  O
  O28      1.0000 0.14268  0.14268  0.50000  Biso   1.000  O
  O29      1.0000 0.90504  0.90504  0.00000  Biso   1.000  O
  O30      1.0000 0.35732  0.35732  0.00000  Biso   1.000  O
  O31      1.0000 0.85732  0.85732  0.50000  Biso   1.000  O
  O32      1.0000 0.40504  0.40504  0.50000  Biso   1.000  O
  O33      1.0000 0.95187  0.95187  0.72446  Biso   1.000  O
  O34      1.0000 0.45187  0.45187  0.77554  Biso   1.000  O
  O35      1.0000 0.95187  0.95187  0.27554  Biso   1.000  O
  O36      1.0000 0.45187  0.45187  0.22446  Biso   1.000  O
  O37      1.0000 0.54813  0.54813  0.77554  Biso   1.000  O
  O38      1.0000 0.04813  0.04813  0.72446  Biso   1.000  O
  O39      1.0000 0.54813  0.54813  0.22446  Biso   1.000  O
  O40      1.0000 0.04813  0.04813  0.27554  Biso   1.000  O
