data_image0
_cell_length_a       30.3622
_cell_length_b       5.55277
_cell_length_c       5.55277
_cell_angle_alpha    90
_cell_angle_beta     90
_cell_angle_gamma    90

_symmetry_space_group_name_H-M    "P 1"
_symmetry_int_tables_number       1

loop_
  _symmetry_equiv_pos_as_xyz
  'x, y, z'

loop_
  _atom_site_label
  _atom_site_occupancy
  _atom_site_fract_x
  _atom_site_fract_y
  _atom_site_fract_z
  _atom_site_thermal_displace_type
  _atom_site_B_iso_or_equiv
  _atom_site_type_symbol
  K1       1.0000 0.75000  0.50000  0.96633  Biso   1.000  K
  K2       1.0000 0.25000  0.50000  0.03367  Biso   1.000  K
  K3       1.0000 0.75000  0.00000  0.53367  Biso   1.000  K
  K4       1.0000 0.25000  0.00000  0.46633  Biso   1.000  K
  Pb1      1.0000 0.92663  0.46873  0.02809  Biso   1.000  Pb
  Pb2      1.0000 0.42663  0.46873  0.97191  Biso   1.000  Pb
  Pb3      1.0000 0.92663  0.03127  0.47191  Biso   1.000  Pb
  Pb4      1.0000 0.42663  0.03127  0.52809  Biso   1.000  Pb
  Pb5      1.0000 0.07337  0.96873  0.52809  Biso   1.000  Pb
  Pb6      1.0000 0.57337  0.96873  0.47191  Biso   1.000  Pb
  Pb7      1.0000 0.07337  0.53127  0.97191  Biso   1.000  Pb
  Pb8      1.0000 0.57337  0.53127  0.02809  Biso   1.000  Pb
  Nb1      1.0000 0.00000  0.00000  0.00000  Biso   1.000  Nb
  Nb2      1.0000 0.50000  0.00000  0.00000  Biso   1.000  Nb
  Nb3      1.0000 0.00000  0.50000  0.50000  Biso   1.000  Nb
  Nb4      1.0000 0.50000  0.50000  0.50000  Biso   1.000  Nb
  Ta1      1.0000 0.85642  0.99298  0.99354  Biso   1.000  Ta
  Ta2      1.0000 0.35642  0.99298  0.00646  Biso   1.000  Ta
  Ta3      1.0000 0.85642  0.50702  0.50646  Biso   1.000  Ta
  Ta4      1.0000 0.35642  0.50702  0.49354  Biso   1.000  Ta
  Ta5      1.0000 0.14358  0.00702  0.00646  Biso   1.000  Ta
  Ta6      1.0000 0.64358  0.00702  0.99354  Biso   1.000  Ta
  Ta7      1.0000 0.14358  0.49298  0.49354  Biso   1.000  Ta
  Ta8      1.0000 0.64358  0.49298  0.50646  Biso   1.000  Ta
  O1       1.0000 0.99854  0.75000  0.25000  Biso   1.000  O
  O2       1.0000 0.45743  0.75000  0.25000  Biso   1.000  O
  O3       1.0000 0.00146  0.25000  0.75000  Biso   1.000  O
  O4       1.0000 0.54257  0.25000  0.75000  Biso   1.000  O
  O5       1.0000 0.04257  0.25000  0.25000  Biso   1.000  O
  O6       1.0000 0.50146  0.25000  0.25000  Biso   1.000  O
  O7       1.0000 0.95743  0.75000  0.75000  Biso   1.000  O
  O8       1.0000 0.49854  0.75000  0.75000  Biso   1.000  O
  O9       1.0000 0.93488  0.04207  0.03917  Biso   1.000  O
  O10      1.0000 0.43488  0.04207  0.96083  Biso   1.000  O
  O11      1.0000 0.93488  0.45793  0.46083  Biso   1.000  O
  O12      1.0000 0.43488  0.45793  0.53917  Biso   1.000  O
  O13      1.0000 0.06512  0.95793  0.96083  Biso   1.000  O
  O14      1.0000 0.56512  0.95793  0.03917  Biso   1.000  O
  O15      1.0000 0.06512  0.54207  0.53917  Biso   1.000  O
  O16      1.0000 0.56512  0.54207  0.46083  Biso   1.000  O
  O17      1.0000 0.86925  0.75000  0.25000  Biso   1.000  O
  O18      1.0000 0.39311  0.75000  0.25000  Biso   1.000  O
  O19      1.0000 0.86839  0.25000  0.75000  Biso   1.000  O
  O20      1.0000 0.34453  0.25000  0.75000  Biso   1.000  O
  O21      1.0000 0.13075  0.25000  0.75000  Biso   1.000  O
  O22      1.0000 0.60689  0.25000  0.75000  Biso   1.000  O
  O23      1.0000 0.13161  0.75000  0.25000  Biso   1.000  O
  O24      1.0000 0.65547  0.75000  0.25000  Biso   1.000  O
  O25      1.0000 0.10689  0.25000  0.25000  Biso   1.000  O
  O26      1.0000 0.63075  0.25000  0.25000  Biso   1.000  O
  O27      1.0000 0.15547  0.75000  0.75000  Biso   1.000  O
  O28      1.0000 0.63161  0.75000  0.75000  Biso   1.000  O
  O29      1.0000 0.84453  0.25000  0.25000  Biso   1.000  O
  O30      1.0000 0.36839  0.25000  0.25000  Biso   1.000  O
  O31      1.0000 0.89311  0.75000  0.75000  Biso   1.000  O
  O32      1.0000 0.36925  0.75000  0.75000  Biso   1.000  O
  O33      1.0000 0.79813  0.97510  0.97446  Biso   1.000  O
  O34      1.0000 0.29813  0.97510  0.02554  Biso   1.000  O
  O35      1.0000 0.79813  0.52490  0.52554  Biso   1.000  O
  O36      1.0000 0.29813  0.52490  0.47446  Biso   1.000  O
  O37      1.0000 0.20187  0.02490  0.02554  Biso   1.000  O
  O38      1.0000 0.70187  0.02490  0.97446  Biso   1.000  O
  O39      1.0000 0.20187  0.47510  0.47446  Biso   1.000  O
  O40      1.0000 0.70187  0.47510  0.52554  Biso   1.000  O
