data_image0
_cell_length_a       15.6806
_cell_length_b       15.6806
_cell_length_c       5.55277
_cell_angle_alpha    79.8016
_cell_angle_beta     79.8016
_cell_angle_gamma    20.3969

_symmetry_space_group_name_H-M    "P 1"
_symmetry_int_tables_number       1

loop_
  _symmetry_equiv_pos_as_xyz
  'x, y, z'

loop_
  _atom_site_label
  _atom_site_occupancy
  _atom_site_fract_x
  _atom_site_fract_y
  _atom_site_fract_z
  _atom_site_thermal_displace_type
  _atom_site_B_iso_or_equiv
  _atom_site_type_symbol
  K1       1.0000 0.28367  0.71633  0.71633  Biso   1.000  K
  K2       1.0000 0.71633  0.28367  0.28367  Biso   1.000  K
  Pb1      1.0000 0.09027  0.55647  0.90973  Biso   1.000  Pb
  Pb2      1.0000 0.55647  0.09027  0.44353  Biso   1.000  Pb
  Pb3      1.0000 0.35355  0.99971  0.64645  Biso   1.000  Pb
  Pb4      1.0000 0.99971  0.35355  0.00029  Biso   1.000  Pb
  Nb1      1.0000 0.49577  0.00423  0.99577  Biso   1.000  Nb
  Nb2      1.0000 0.00423  0.49577  0.50423  Biso   1.000  Nb
  Ta1      1.0000 0.64962  0.13754  0.86246  Biso   1.000  Ta
  Ta2      1.0000 0.13754  0.64962  0.35038  Biso   1.000  Ta
  Ta3      1.0000 0.37538  0.83746  0.16254  Biso   1.000  Ta
  Ta4      1.0000 0.83746  0.37538  0.62462  Biso   1.000  Ta
  O1       1.0000 0.25000  0.25000  0.25000  Biso   1.000  O
  O2       1.0000 0.75000  0.75000  0.75000  Biso   1.000  O
  O3       1.0000 0.70889  0.70889  0.29111  Biso   1.000  O
  O4       1.0000 0.29111  0.29111  0.70889  Biso   1.000  O
  O5       1.0000 0.56541  0.06483  0.93517  Biso   1.000  O
  O6       1.0000 0.06483  0.56541  0.43459  Biso   1.000  O
  O7       1.0000 0.35683  0.01293  0.98707  Biso   1.000  O
  O8       1.0000 0.01293  0.35683  0.64317  Biso   1.000  O
  O9       1.0000 0.38118  0.38118  0.11882  Biso   1.000  O
  O10      1.0000 0.88118  0.88118  0.61882  Biso   1.000  O
  O11      1.0000 0.61882  0.61882  0.88118  Biso   1.000  O
  O12      1.0000 0.11882  0.11882  0.38118  Biso   1.000  O
  O13      1.0000 0.67144  0.67144  0.32856  Biso   1.000  O
  O14      1.0000 0.06620  0.06620  0.93380  Biso   1.000  O
  O15      1.0000 0.87628  0.87628  0.12372  Biso   1.000  O
  O16      1.0000 0.38608  0.38608  0.61392  Biso   1.000  O
  O17      1.0000 0.69803  0.20571  0.79429  Biso   1.000  O
  O18      1.0000 0.20571  0.69803  0.30197  Biso   1.000  O
  O19      1.0000 0.34537  0.75089  0.24911  Biso   1.000  O
  O20      1.0000 0.75089  0.34537  0.65463  Biso   1.000  O
