data_image0
_cell_length_a       15.6806
_cell_length_b       15.6806
_cell_length_c       7.8528
_cell_angle_alpha    90
_cell_angle_beta     90
_cell_angle_gamma    150.998

_symmetry_space_group_name_H-M    "P 1"
_symmetry_int_tables_number       1

loop_
  _symmetry_equiv_pos_as_xyz
  'x, y, z'

loop_
  _atom_site_label
  _atom_site_occupancy
  _atom_site_fract_x
  _atom_site_fract_y
  _atom_site_fract_z
  _atom_site_thermal_displace_type
  _atom_site_B_iso_or_equiv
  _atom_site_type_symbol
  K1       1.0000 0.94408  0.52225  0.76684  Biso   1.000  K
  K2       1.0000 0.47775  0.05592  0.73316  Biso   1.000  K
  K3       1.0000 0.05592  0.47775  0.23316  Biso   1.000  K
  K4       1.0000 0.52225  0.94408  0.26684  Biso   1.000  K
  Pb1      1.0000 0.18761  0.34048  0.73595  Biso   1.000  Pb
  Pb2      1.0000 0.65952  0.81239  0.76405  Biso   1.000  Pb
  Pb3      1.0000 0.16565  0.30626  0.26405  Biso   1.000  Pb
  Pb4      1.0000 0.69374  0.83435  0.23595  Biso   1.000  Pb
  Pb5      1.0000 0.83435  0.69374  0.73595  Biso   1.000  Pb
  Pb6      1.0000 0.30626  0.16565  0.76405  Biso   1.000  Pb
  Pb7      1.0000 0.81239  0.65952  0.26405  Biso   1.000  Pb
  Pb8      1.0000 0.34048  0.18761  0.23595  Biso   1.000  Pb
  Nb1      1.0000 0.00000  0.00000  0.50000  Biso   1.000  Nb
  Nb2      1.0000 0.50000  0.50000  0.50000  Biso   1.000  Nb
  Nb3      1.0000 0.00000  0.00000  0.00000  Biso   1.000  Nb
  Nb4      1.0000 0.50000  0.50000  0.00000  Biso   1.000  Nb
  Ta1      1.0000 0.85319  0.14035  0.49835  Biso   1.000  Ta
  Ta2      1.0000 0.35965  0.64681  0.49188  Biso   1.000  Ta
  Ta3      1.0000 0.85965  0.14681  0.00165  Biso   1.000  Ta
  Ta4      1.0000 0.35319  0.64035  0.00812  Biso   1.000  Ta
  Ta5      1.0000 0.14681  0.85965  0.50165  Biso   1.000  Ta
  Ta6      1.0000 0.64035  0.35319  0.50812  Biso   1.000  Ta
  Ta7      1.0000 0.14035  0.85319  0.99835  Biso   1.000  Ta
  Ta8      1.0000 0.64681  0.35965  0.99188  Biso   1.000  Ta
  O1       1.0000 0.27055  0.22945  0.50000  Biso   1.000  O
  O2       1.0000 0.72945  0.77055  0.50000  Biso   1.000  O
  O3       1.0000 0.22945  0.27055  0.00000  Biso   1.000  O
  O4       1.0000 0.77055  0.72945  0.00000  Biso   1.000  O
  O5       1.0000 0.99907  0.00093  0.25000  Biso   1.000  O
  O6       1.0000 0.45796  0.54204  0.25000  Biso   1.000  O
  O7       1.0000 0.00093  0.99907  0.75000  Biso   1.000  O
  O8       1.0000 0.54204  0.45796  0.75000  Biso   1.000  O
  O9       1.0000 0.95447  0.08471  0.49986  Biso   1.000  O
  O10      1.0000 0.41529  0.54553  0.53903  Biso   1.000  O
  O11      1.0000 0.91529  0.04553  0.00014  Biso   1.000  O
  O12      1.0000 0.45447  0.58471  0.96097  Biso   1.000  O
  O13      1.0000 0.04553  0.91529  0.50014  Biso   1.000  O
  O14      1.0000 0.58471  0.45447  0.46097  Biso   1.000  O
  O15      1.0000 0.08471  0.95447  0.99986  Biso   1.000  O
  O16      1.0000 0.54553  0.41529  0.03903  Biso   1.000  O
  O17      1.0000 0.10689  0.39311  0.49750  Biso   1.000  O
  O18      1.0000 0.63075  0.86925  0.49750  Biso   1.000  O
  O19      1.0000 0.13075  0.36925  0.00250  Biso   1.000  O
  O20      1.0000 0.60689  0.89311  0.00250  Biso   1.000  O
  O21      1.0000 0.89311  0.60689  0.50250  Biso   1.000  O
  O22      1.0000 0.36925  0.13075  0.50250  Biso   1.000  O
  O23      1.0000 0.86925  0.63075  0.99750  Biso   1.000  O
  O24      1.0000 0.39311  0.10689  0.99750  Biso   1.000  O
  O25      1.0000 0.13934  0.86066  0.25000  Biso   1.000  O
  O26      1.0000 0.66320  0.33680  0.25000  Biso   1.000  O
  O27      1.0000 0.12302  0.87698  0.75000  Biso   1.000  O
  O28      1.0000 0.59916  0.40084  0.75000  Biso   1.000  O
  O29      1.0000 0.87698  0.12302  0.25000  Biso   1.000  O
  O30      1.0000 0.40084  0.59916  0.25000  Biso   1.000  O
  O31      1.0000 0.86066  0.13934  0.75000  Biso   1.000  O
  O32      1.0000 0.33680  0.66320  0.75000  Biso   1.000  O
  O33      1.0000 0.78536  0.18910  0.48663  Biso   1.000  O
  O34      1.0000 0.31090  0.71464  0.46110  Biso   1.000  O
  O35      1.0000 0.81090  0.21464  0.01337  Biso   1.000  O
  O36      1.0000 0.28536  0.68910  0.03890  Biso   1.000  O
  O37      1.0000 0.21464  0.81090  0.51337  Biso   1.000  O
  O38      1.0000 0.68910  0.28536  0.53890  Biso   1.000  O
  O39      1.0000 0.18910  0.78536  0.98663  Biso   1.000  O
  O40      1.0000 0.71464  0.31090  0.96110  Biso   1.000  O
