data_image0
_cell_length_a       15.6806
_cell_length_b       15.6806
_cell_length_c       15.6806
_cell_angle_alpha    159.603
_cell_angle_beta     29.0021
_cell_angle_gamma    159.603

_symmetry_space_group_name_H-M    "P 1"
_symmetry_int_tables_number       1

loop_
  _symmetry_equiv_pos_as_xyz
  'x, y, z'

loop_
  _atom_site_label
  _atom_site_occupancy
  _atom_site_fract_x
  _atom_site_fract_y
  _atom_site_fract_z
  _atom_site_thermal_displace_type
  _atom_site_B_iso_or_equiv
  _atom_site_type_symbol
  K1       1.0000 0.21633  0.46633  0.75000  Biso   1.000  K
  K2       1.0000 0.78367  0.53367  0.25000  Biso   1.000  K
  Pb1      1.0000 0.10146  0.52809  0.57337  Biso   1.000  Pb
  Pb2      1.0000 0.54528  0.47191  0.07337  Biso   1.000  Pb
  Pb3      1.0000 0.45472  0.52809  0.92663  Biso   1.000  Pb
  Pb4      1.0000 0.89854  0.47191  0.42663  Biso   1.000  Pb
  Nb1      1.0000 0.00000  0.00000  0.00000  Biso   1.000  Nb
  Nb2      1.0000 0.50000  0.00000  0.50000  Biso   1.000  Nb
  Ta1      1.0000 0.13712  0.99354  0.14358  Biso   1.000  Ta
  Ta2      1.0000 0.65004  0.00646  0.64358  Biso   1.000  Ta
  Ta3      1.0000 0.86288  0.00646  0.85642  Biso   1.000  Ta
  Ta4      1.0000 0.34996  0.99354  0.35642  Biso   1.000  Ta
  O1       1.0000 0.22945  0.00000  0.72945  Biso   1.000  O
  O2       1.0000 0.77055  0.00000  0.27055  Biso   1.000  O
  O3       1.0000 0.22945  0.50000  0.22945  Biso   1.000  O
  O4       1.0000 0.77055  0.50000  0.77055  Biso   1.000  O
  O5       1.0000 0.10429  0.03917  0.06512  Biso   1.000  O
  O6       1.0000 0.52595  0.96083  0.56512  Biso   1.000  O
  O7       1.0000 0.89571  0.96083  0.93488  Biso   1.000  O
  O8       1.0000 0.47405  0.03917  0.43488  Biso   1.000  O
  O9       1.0000 0.39311  1.00000  0.89311  Biso   1.000  O
  O10      1.0000 0.86925  0.00000  0.36925  Biso   1.000  O
  O11      1.0000 0.60689  0.00000  0.10689  Biso   1.000  O
  O12      1.0000 0.13075  0.00000  0.63075  Biso   1.000  O
  O13      1.0000 0.13075  0.50000  0.13075  Biso   1.000  O
  O14      1.0000 0.60689  0.50000  0.60689  Biso   1.000  O
  O15      1.0000 0.39311  0.50000  0.39311  Biso   1.000  O
  O16      1.0000 0.86925  0.50000  0.86925  Biso   1.000  O
  O17      1.0000 0.17633  0.97446  0.20187  Biso   1.000  O
  O18      1.0000 0.72741  0.02554  0.70187  Biso   1.000  O
  O19      1.0000 0.82367  0.02554  0.79813  Biso   1.000  O
  O20      1.0000 0.27259  0.97446  0.29813  Biso   1.000  O
