data_image0
_cell_length_a       15.6806
_cell_length_b       15.6806
_cell_length_c       7.8528
_cell_angle_alpha    90
_cell_angle_beta     90
_cell_angle_gamma    29.0021

_symmetry_space_group_name_H-M    "P 1"
_symmetry_int_tables_number       1

loop_
  _symmetry_equiv_pos_as_xyz
  'x, y, z'

loop_
  _atom_site_label
  _atom_site_occupancy
  _atom_site_fract_x
  _atom_site_fract_y
  _atom_site_fract_z
  _atom_site_thermal_displace_type
  _atom_site_B_iso_or_equiv
  _atom_site_type_symbol
  K1       1.0000 0.80906  0.80906  0.75000  Biso   1.000  K
  K2       1.0000 0.19094  0.19094  0.75000  Biso   1.000  K
  K3       1.0000 0.80906  0.80906  0.25000  Biso   1.000  K
  K4       1.0000 0.19094  0.19094  0.25000  Biso   1.000  K
  Pb1      1.0000 0.62179  0.53181  0.75000  Biso   1.000  Pb
  Pb2      1.0000 0.02495  0.11493  0.75000  Biso   1.000  Pb
  Pb3      1.0000 0.53181  0.62179  0.25000  Biso   1.000  Pb
  Pb4      1.0000 0.11493  0.02495  0.25000  Biso   1.000  Pb
  Pb5      1.0000 0.88507  0.97505  0.75000  Biso   1.000  Pb
  Pb6      1.0000 0.46819  0.37821  0.75000  Biso   1.000  Pb
  Pb7      1.0000 0.97505  0.88507  0.25000  Biso   1.000  Pb
  Pb8      1.0000 0.37821  0.46819  0.25000  Biso   1.000  Pb
  Nb1      1.0000 0.74821  0.25179  0.99577  Biso   1.000  Nb
  Nb2      1.0000 0.25179  0.74821  0.00423  Biso   1.000  Nb
  Nb3      1.0000 0.74821  0.25179  0.50423  Biso   1.000  Nb
  Nb4      1.0000 0.25179  0.74821  0.49577  Biso   1.000  Nb
  Ta1      1.0000 0.89884  0.38832  0.01250  Biso   1.000  Ta
  Ta2      1.0000 0.38832  0.89884  0.98750  Biso   1.000  Ta
  Ta3      1.0000 0.89884  0.38832  0.48750  Biso   1.000  Ta
  Ta4      1.0000 0.38832  0.89884  0.51250  Biso   1.000  Ta
  Ta5      1.0000 0.61168  0.10116  0.01250  Biso   1.000  Ta
  Ta6      1.0000 0.10116  0.61168  0.98750  Biso   1.000  Ta
  Ta7      1.0000 0.61168  0.10116  0.48750  Biso   1.000  Ta
  Ta8      1.0000 0.10116  0.61168  0.51250  Biso   1.000  Ta
  O1       1.0000 0.50000  0.50000  0.00000  Biso   1.000  O
  O2       1.0000 0.00000  0.00000  0.00000  Biso   1.000  O
  O3       1.0000 0.50000  0.50000  0.50000  Biso   1.000  O
  O4       1.0000 0.00000  0.00000  0.50000  Biso   1.000  O
  O5       1.0000 0.75074  0.24926  0.25000  Biso   1.000  O
  O6       1.0000 0.24926  0.75074  0.25000  Biso   1.000  O
  O7       1.0000 0.75074  0.24926  0.75000  Biso   1.000  O
  O8       1.0000 0.24926  0.75074  0.75000  Biso   1.000  O
  O9       1.0000 0.80912  0.32112  0.96112  Biso   1.000  O
  O10      1.0000 0.32112  0.80912  0.03888  Biso   1.000  O
  O11      1.0000 0.80912  0.32112  0.53888  Biso   1.000  O
  O12      1.0000 0.32112  0.80912  0.46112  Biso   1.000  O
  O13      1.0000 0.67888  0.19088  0.96112  Biso   1.000  O
  O14      1.0000 0.19088  0.67888  0.03888  Biso   1.000  O
  O15      1.0000 0.67888  0.19088  0.53888  Biso   1.000  O
  O16      1.0000 0.19088  0.67888  0.46112  Biso   1.000  O
  O17      1.0000 0.64368  0.64368  0.00000  Biso   1.000  O
  O18      1.0000 0.11868  0.11868  0.00000  Biso   1.000  O
  O19      1.0000 0.64368  0.64368  0.50000  Biso   1.000  O
  O20      1.0000 0.11868  0.11868  0.50000  Biso   1.000  O
  O21      1.0000 0.88132  0.88132  0.00000  Biso   1.000  O
  O22      1.0000 0.35632  0.35632  0.00000  Biso   1.000  O
  O23      1.0000 0.88132  0.88132  0.50000  Biso   1.000  O
  O24      1.0000 0.35632  0.35632  0.50000  Biso   1.000  O
  O25      1.0000 0.64894  0.14621  0.25000  Biso   1.000  O
  O26      1.0000 0.08870  0.59143  0.25000  Biso   1.000  O
  O27      1.0000 0.59143  0.08870  0.75000  Biso   1.000  O
  O28      1.0000 0.14621  0.64894  0.75000  Biso   1.000  O
  O29      1.0000 0.85379  0.35106  0.25000  Biso   1.000  O
  O30      1.0000 0.40857  0.91130  0.25000  Biso   1.000  O
  O31      1.0000 0.91130  0.40857  0.75000  Biso   1.000  O
  O32      1.0000 0.35106  0.85379  0.75000  Biso   1.000  O
  O33      1.0000 0.97466  0.42908  0.02170  Biso   1.000  O
  O34      1.0000 0.42908  0.97466  0.97830  Biso   1.000  O
  O35      1.0000 0.97466  0.42908  0.47830  Biso   1.000  O
  O36      1.0000 0.42908  0.97466  0.52170  Biso   1.000  O
  O37      1.0000 0.57092  0.02534  0.02170  Biso   1.000  O
  O38      1.0000 0.02534  0.57092  0.97830  Biso   1.000  O
  O39      1.0000 0.57092  0.02534  0.47830  Biso   1.000  O
  O40      1.0000 0.02534  0.57092  0.52170  Biso   1.000  O
