data_image0
_cell_length_a       15.6806
_cell_length_b       5.55277
_cell_length_c       15.6806
_cell_angle_alpha    79.8016
_cell_angle_beta     20.3969
_cell_angle_gamma    79.8016

_symmetry_space_group_name_H-M    "P 1"
_symmetry_int_tables_number       1

loop_
  _symmetry_equiv_pos_as_xyz
  'x, y, z'

loop_
  _atom_site_label
  _atom_site_occupancy
  _atom_site_fract_x
  _atom_site_fract_y
  _atom_site_fract_z
  _atom_site_thermal_displace_type
  _atom_site_B_iso_or_equiv
  _atom_site_type_symbol
  K1       1.0000 0.75000  0.25000  0.75000  Biso   1.000  K
  K2       1.0000 0.25000  0.75000  0.25000  Biso   1.000  K
  Pb1      1.0000 0.52838  0.38164  0.61836  Biso   1.000  Pb
  Pb2      1.0000 0.11836  0.97162  0.02838  Biso   1.000  Pb
  Pb3      1.0000 0.97162  0.11836  0.88164  Biso   1.000  Pb
  Pb4      1.0000 0.38164  0.52838  0.47162  Biso   1.000  Pb
  Nb1      1.0000 0.00423  0.49577  0.99577  Biso   1.000  Nb
  Nb2      1.0000 0.49577  0.00423  0.50423  Biso   1.000  Nb
  Ta1      1.0000 0.13108  0.36892  0.15608  Biso   1.000  Ta
  Ta2      1.0000 0.65608  0.84392  0.63108  Biso   1.000  Ta
  Ta3      1.0000 0.84392  0.65608  0.86892  Biso   1.000  Ta
  Ta4      1.0000 0.36892  0.13108  0.34392  Biso   1.000  Ta
  O1       1.0000 0.20000  0.80000  0.80000  Biso   1.000  O
  O2       1.0000 0.80000  0.20000  0.20000  Biso   1.000  O
  O3       1.0000 0.70000  0.70000  0.30000  Biso   1.000  O
  O4       1.0000 0.30000  0.30000  0.70000  Biso   1.000  O
  O5       1.0000 0.10400  0.39600  0.02624  Biso   1.000  O
  O6       1.0000 0.52624  0.97376  0.60400  Biso   1.000  O
  O7       1.0000 0.97376  0.52624  0.89600  Biso   1.000  O
  O8       1.0000 0.39600  0.10400  0.47376  Biso   1.000  O
  O9       1.0000 0.38187  0.61813  0.88049  Biso   1.000  O
  O10      1.0000 0.88049  0.11951  0.38187  Biso   1.000  O
  O11      1.0000 0.61813  0.38187  0.11951  Biso   1.000  O
  O12      1.0000 0.11951  0.88049  0.61813  Biso   1.000  O
  O13      1.0000 0.64827  0.85311  0.14689  Biso   1.000  O
  O14      1.0000 0.08937  0.40925  0.59075  Biso   1.000  O
  O15      1.0000 0.85311  0.64827  0.35173  Biso   1.000  O
  O16      1.0000 0.40925  0.08937  0.91063  Biso   1.000  O
  O17      1.0000 0.18017  0.31983  0.22357  Biso   1.000  O
  O18      1.0000 0.72357  0.77643  0.68017  Biso   1.000  O
  O19      1.0000 0.77643  0.72357  0.81983  Biso   1.000  O
  O20      1.0000 0.31983  0.18017  0.27643  Biso   1.000  O
