data_image0
_cell_length_a       5.55277
_cell_length_b       30.3622
_cell_length_c       5.55277
_cell_angle_alpha    90
_cell_angle_beta     90
_cell_angle_gamma    90

_symmetry_space_group_name_H-M    "P 1"
_symmetry_int_tables_number       1

loop_
  _symmetry_equiv_pos_as_xyz
  'x, y, z'

loop_
  _atom_site_label
  _atom_site_occupancy
  _atom_site_fract_x
  _atom_site_fract_y
  _atom_site_fract_z
  _atom_site_thermal_displace_type
  _atom_site_B_iso_or_equiv
  _atom_site_type_symbol
  K1       1.0000 0.82528  0.75000  0.25000  Biso   1.000  K
  K2       1.0000 0.82528  0.25000  0.25000  Biso   1.000  K
  K3       1.0000 0.17472  0.75000  0.75000  Biso   1.000  K
  K4       1.0000 0.17472  0.25000  0.75000  Biso   1.000  K
  Pb1      1.0000 0.68016  0.92663  0.29499  Biso   1.000  Pb
  Pb2      1.0000 0.77014  0.42663  0.20501  Biso   1.000  Pb
  Pb3      1.0000 0.31984  0.92663  0.70501  Biso   1.000  Pb
  Pb4      1.0000 0.22986  0.42663  0.79499  Biso   1.000  Pb
  Pb5      1.0000 0.31984  0.07337  0.70501  Biso   1.000  Pb
  Pb6      1.0000 0.22986  0.57337  0.79499  Biso   1.000  Pb
  Pb7      1.0000 0.68016  0.07337  0.29499  Biso   1.000  Pb
  Pb8      1.0000 0.77014  0.57337  0.20501  Biso   1.000  Pb
  Nb1      1.0000 0.74515  0.00000  0.74577  Biso   1.000  Nb
  Nb2      1.0000 0.75361  0.50000  0.75423  Biso   1.000  Nb
  Nb3      1.0000 0.25485  0.00000  0.25423  Biso   1.000  Nb
  Nb4      1.0000 0.24639  0.50000  0.24577  Biso   1.000  Nb
  Ta1      1.0000 0.77414  0.85642  0.76250  Biso   1.000  Ta
  Ta2      1.0000 0.74914  0.35642  0.73750  Biso   1.000  Ta
  Ta3      1.0000 0.22586  0.85642  0.23750  Biso   1.000  Ta
  Ta4      1.0000 0.25086  0.35642  0.26250  Biso   1.000  Ta
  Ta5      1.0000 0.77414  0.14358  0.76250  Biso   1.000  Ta
  Ta6      1.0000 0.74914  0.64358  0.73750  Biso   1.000  Ta
  Ta7      1.0000 0.22586  0.14358  0.23750  Biso   1.000  Ta
  Ta8      1.0000 0.25086  0.64358  0.26250  Biso   1.000  Ta
  O1       1.0000 0.00000  0.00000  0.50000  Biso   1.000  O
  O2       1.0000 0.00000  0.50000  0.50000  Biso   1.000  O
  O3       1.0000 0.50000  0.00000  0.00000  Biso   1.000  O
  O4       1.0000 0.50000  0.50000  0.00000  Biso   1.000  O
  O5       1.0000 0.00000  0.00000  0.00000  Biso   1.000  O
  O6       1.0000 0.00000  0.50000  0.00000  Biso   1.000  O
  O7       1.0000 0.50000  0.00000  0.50000  Biso   1.000  O
  O8       1.0000 0.50000  0.50000  0.50000  Biso   1.000  O
  O9       1.0000 0.69957  0.93488  0.71112  Biso   1.000  O
  O10      1.0000 0.77733  0.43488  0.78888  Biso   1.000  O
  O11      1.0000 0.30043  0.93488  0.28888  Biso   1.000  O
  O12      1.0000 0.22267  0.43488  0.21112  Biso   1.000  O
  O13      1.0000 0.69957  0.06512  0.71112  Biso   1.000  O
  O14      1.0000 0.77733  0.56512  0.78888  Biso   1.000  O
  O15      1.0000 0.30043  0.06512  0.28888  Biso   1.000  O
  O16      1.0000 0.22267  0.56512  0.21112  Biso   1.000  O
  O17      1.0000 0.00000  0.87751  0.50000  Biso   1.000  O
  O18      1.0000 0.00000  0.37751  0.50000  Biso   1.000  O
  O19      1.0000 0.50000  0.86013  0.00000  Biso   1.000  O
  O20      1.0000 0.50000  0.36013  0.00000  Biso   1.000  O
  O21      1.0000 0.50000  0.13987  0.00000  Biso   1.000  O
  O22      1.0000 0.50000  0.63987  0.00000  Biso   1.000  O
  O23      1.0000 0.00000  0.12249  0.50000  Biso   1.000  O
  O24      1.0000 0.00000  0.62249  0.50000  Biso   1.000  O
  O25      1.0000 0.00000  0.09373  0.00000  Biso   1.000  O
  O26      1.0000 0.00000  0.65125  0.00000  Biso   1.000  O
  O27      1.0000 0.50000  0.16863  0.50000  Biso   1.000  O
  O28      1.0000 0.50000  0.61111  0.50000  Biso   1.000  O
  O29      1.0000 0.00000  0.90627  0.00000  Biso   1.000  O
  O30      1.0000 0.00000  0.34875  0.00000  Biso   1.000  O
  O31      1.0000 0.50000  0.83137  0.50000  Biso   1.000  O
  O32      1.0000 0.50000  0.38889  0.50000  Biso   1.000  O
  O33      1.0000 0.80297  0.79813  0.77170  Biso   1.000  O
  O34      1.0000 0.75957  0.29813  0.72830  Biso   1.000  O
  O35      1.0000 0.19703  0.79813  0.22830  Biso   1.000  O
  O36      1.0000 0.24043  0.29813  0.27170  Biso   1.000  O
  O37      1.0000 0.80297  0.20187  0.77170  Biso   1.000  O
  O38      1.0000 0.75957  0.70187  0.72830  Biso   1.000  O
  O39      1.0000 0.19703  0.20187  0.22830  Biso   1.000  O
  O40      1.0000 0.24043  0.70187  0.27170  Biso   1.000  O
