data_image0
_cell_length_a       15.6806
_cell_length_b       15.6806
_cell_length_c       15.6806
_cell_angle_alpha    159.603
_cell_angle_beta     159.603
_cell_angle_gamma    29.0021

_symmetry_space_group_name_H-M    "P 1"
_symmetry_int_tables_number       1

loop_
  _symmetry_equiv_pos_as_xyz
  'x, y, z'

loop_
  _atom_site_label
  _atom_site_occupancy
  _atom_site_fract_x
  _atom_site_fract_y
  _atom_site_fract_z
  _atom_site_thermal_displace_type
  _atom_site_B_iso_or_equiv
  _atom_site_type_symbol
  K1       1.0000 0.66836  0.75000  0.41836  Biso   1.000  K
  K2       1.0000 0.83164  0.25000  0.08164  Biso   1.000  K
  Pb1      1.0000 0.18292  0.34842  0.88460  Biso   1.000  Pb
  Pb2      1.0000 0.96382  0.29832  0.61540  Biso   1.000  Pb
  Pb3      1.0000 0.53618  0.15158  0.33450  Biso   1.000  Pb
  Pb4      1.0000 0.31708  0.20168  0.16550  Biso   1.000  Pb
  Nb1      1.0000 0.75000  0.47885  0.72885  Biso   1.000  Nb
  Nb2      1.0000 0.25000  0.02115  0.77115  Biso   1.000  Nb
  Ta1      1.0000 0.86127  0.70607  0.78018  Biso   1.000  Ta
  Ta2      1.0000 0.42589  0.08109  0.71982  Biso   1.000  Ta
  Ta3      1.0000 0.63873  0.41891  0.84480  Biso   1.000  Ta
  Ta4      1.0000 0.07411  0.79393  0.65520  Biso   1.000  Ta
  O1       1.0000 0.60277  0.85277  0.75000  Biso   1.000  O
  O2       1.0000 0.89723  0.14723  0.75000  Biso   1.000  O
  O3       1.0000 0.89723  0.64723  0.25000  Biso   1.000  O
  O4       1.0000 0.60277  0.35277  0.25000  Biso   1.000  O
  O5       1.0000 0.01098  0.37071  0.75144  Biso   1.000  O
  O6       1.0000 0.11926  0.25953  0.74856  Biso   1.000  O
  O7       1.0000 0.48902  0.24047  0.35973  Biso   1.000  O
  O8       1.0000 0.38074  0.12929  0.14027  Biso   1.000  O
  O9       1.0000 0.49964  0.74964  0.75000  Biso   1.000  O
  O10      1.0000 0.26272  0.51272  0.75000  Biso   1.000  O
  O11      1.0000 0.85658  0.10658  0.75000  Biso   1.000  O
  O12      1.0000 0.38106  0.63106  0.75000  Biso   1.000  O
  O13      1.0000 0.00036  0.75036  0.25000  Biso   1.000  O
  O14      1.0000 0.23728  0.98728  0.25000  Biso   1.000  O
  O15      1.0000 0.11894  0.86894  0.25000  Biso   1.000  O
  O16      1.0000 0.64342  0.39342  0.25000  Biso   1.000  O
  O17      1.0000 0.82418  0.81036  0.73080  Biso   1.000  O
  O18      1.0000 0.57956  0.09338  0.76920  Biso   1.000  O
  O19      1.0000 0.67582  0.40662  0.98618  Biso   1.000  O
  O20      1.0000 0.92044  0.68964  0.51382  Biso   1.000  O
