data_image0
_cell_length_a       15.6806
_cell_length_b       15.6806
_cell_length_c       5.55277
_cell_angle_alpha    100.198
_cell_angle_beta     100.198
_cell_angle_gamma    150.998

_symmetry_space_group_name_H-M    "P 1"
_symmetry_int_tables_number       1

loop_
  _symmetry_equiv_pos_as_xyz
  'x, y, z'

loop_
  _atom_site_label
  _atom_site_occupancy
  _atom_site_fract_x
  _atom_site_fract_y
  _atom_site_fract_z
  _atom_site_thermal_displace_type
  _atom_site_B_iso_or_equiv
  _atom_site_type_symbol
  K1       1.0000 0.75000  0.25000  0.50000  Biso   1.000  K
  K2       1.0000 0.25000  0.75000  0.50000  Biso   1.000  K
  Pb1      1.0000 0.86435  0.01109  0.42044  Biso   1.000  Pb
  Pb2      1.0000 0.45433  0.60107  0.51042  Biso   1.000  Pb
  Pb3      1.0000 0.60107  0.45433  0.51042  Biso   1.000  Pb
  Pb4      1.0000 0.01109  0.86435  0.42044  Biso   1.000  Pb
  Nb1      1.0000 0.97897  0.97897  0.96217  Biso   1.000  Nb
  Nb2      1.0000 0.48743  0.48743  0.97063  Biso   1.000  Nb
  Ta1      1.0000 0.88114  0.16830  0.03693  Biso   1.000  Ta
  Ta2      1.0000 0.35614  0.64330  0.01194  Biso   1.000  Ta
  Ta3      1.0000 0.16830  0.88114  0.03693  Biso   1.000  Ta
  Ta4      1.0000 0.64330  0.35614  0.01194  Biso   1.000  Ta
  O1       1.0000 0.26979  0.26979  0.53957  Biso   1.000  O
  O2       1.0000 0.76979  0.76979  0.53957  Biso   1.000  O
  O3       1.0000 0.29185  0.29185  0.08369  Biso   1.000  O
  O4       1.0000 0.79185  0.79185  0.08369  Biso   1.000  O
  O5       1.0000 0.91908  0.04932  0.00728  Biso   1.000  O
  O6       1.0000 0.49684  0.62708  0.08505  Biso   1.000  O
  O7       1.0000 0.04932  0.91908  0.00728  Biso   1.000  O
  O8       1.0000 0.62708  0.49684  0.08505  Biso   1.000  O
  O9       1.0000 0.14293  0.37653  0.51946  Biso   1.000  O
  O10      1.0000 0.61417  0.90529  0.51946  Biso   1.000  O
  O11      1.0000 0.90529  0.61417  0.51946  Biso   1.000  O
  O12      1.0000 0.37653  0.14293  0.51946  Biso   1.000  O
  O13      1.0000 0.37935  0.14575  0.02511  Biso   1.000  O
  O14      1.0000 0.90811  0.61699  0.02511  Biso   1.000  O
  O15      1.0000 0.14575  0.37935  0.02511  Biso   1.000  O
  O16      1.0000 0.61699  0.90811  0.02511  Biso   1.000  O
  O17      1.0000 0.82723  0.23097  0.03649  Biso   1.000  O
  O18      1.0000 0.28383  0.68757  0.99310  Biso   1.000  O
  O19      1.0000 0.23097  0.82723  0.03649  Biso   1.000  O
  O20      1.0000 0.68757  0.28383  0.99310  Biso   1.000  O
