data_image0
_cell_length_a       15.6806
_cell_length_b       5.55277
_cell_length_c       15.6806
_cell_angle_alpha    79.8016
_cell_angle_beta     20.3969
_cell_angle_gamma    79.8016

_symmetry_space_group_name_H-M    "P 1"
_symmetry_int_tables_number       1

loop_
  _symmetry_equiv_pos_as_xyz
  'x, y, z'

loop_
  _atom_site_label
  _atom_site_occupancy
  _atom_site_fract_x
  _atom_site_fract_y
  _atom_site_fract_z
  _atom_site_thermal_displace_type
  _atom_site_B_iso_or_equiv
  _atom_site_type_symbol
  K1       1.0000 0.25000  0.25000  0.25000  Biso   1.000  K
  K2       1.0000 0.75000  0.75000  0.75000  Biso   1.000  K
  Pb1      1.0000 0.10107  0.36435  0.04567  Biso   1.000  Pb
  Pb2      1.0000 0.51109  0.95433  0.63565  Biso   1.000  Pb
  Pb3      1.0000 0.36435  0.10107  0.48891  Biso   1.000  Pb
  Pb4      1.0000 0.95433  0.51109  0.89893  Biso   1.000  Pb
  Nb1      1.0000 0.98743  0.98743  0.01257  Biso   1.000  Nb
  Nb2      1.0000 0.47897  0.47897  0.52103  Biso   1.000  Nb
  Ta1      1.0000 0.14330  0.85614  0.14386  Biso   1.000  Ta
  Ta2      1.0000 0.66830  0.38114  0.61886  Biso   1.000  Ta
  Ta3      1.0000 0.85614  0.14330  0.85670  Biso   1.000  Ta
  Ta4      1.0000 0.38114  0.66830  0.33170  Biso   1.000  Ta
  O1       1.0000 0.79185  0.29185  0.20815  Biso   1.000  O
  O2       1.0000 0.29185  0.79185  0.70815  Biso   1.000  O
  O3       1.0000 0.76979  0.76979  0.23021  Biso   1.000  O
  O4       1.0000 0.26979  0.26979  0.73021  Biso   1.000  O
  O5       1.0000 0.12708  0.99684  0.00316  Biso   1.000  O
  O6       1.0000 0.54932  0.41908  0.58092  Biso   1.000  O
  O7       1.0000 0.99684  0.12708  0.87292  Biso   1.000  O
  O8       1.0000 0.41908  0.54932  0.45068  Biso   1.000  O
  O9       1.0000 0.89373  0.13137  0.36863  Biso   1.000  O
  O10      1.0000 0.39373  0.63137  0.86863  Biso   1.000  O
  O11      1.0000 0.13137  0.89373  0.60627  Biso   1.000  O
  O12      1.0000 0.63137  0.39373  0.10627  Biso   1.000  O
  O13      1.0000 0.65730  0.86215  0.13785  Biso   1.000  O
  O14      1.0000 0.09979  0.41966  0.58034  Biso   1.000  O
  O15      1.0000 0.86215  0.65730  0.34270  Biso   1.000  O
  O16      1.0000 0.41966  0.09979  0.90021  Biso   1.000  O
  O17      1.0000 0.18757  0.78383  0.21617  Biso   1.000  O
  O18      1.0000 0.73097  0.32723  0.67277  Biso   1.000  O
  O19      1.0000 0.78383  0.18757  0.81243  Biso   1.000  O
  O20      1.0000 0.32723  0.73097  0.26903  Biso   1.000  O
