data_image0
_cell_length_a       15.6806
_cell_length_b       15.6806
_cell_length_c       7.8528
_cell_angle_alpha    90
_cell_angle_beta     90
_cell_angle_gamma    150.998

_symmetry_space_group_name_H-M    "P 1"
_symmetry_int_tables_number       1

loop_
  _symmetry_equiv_pos_as_xyz
  'x, y, z'

loop_
  _atom_site_label
  _atom_site_occupancy
  _atom_site_fract_x
  _atom_site_fract_y
  _atom_site_fract_z
  _atom_site_thermal_displace_type
  _atom_site_B_iso_or_equiv
  _atom_site_type_symbol
  K1       1.0000 0.54528  0.45472  0.75000  Biso   1.000  K
  K2       1.0000 0.45472  0.54528  0.75000  Biso   1.000  K
  K3       1.0000 0.54528  0.45472  0.25000  Biso   1.000  K
  K4       1.0000 0.45472  0.54528  0.25000  Biso   1.000  K
  Pb1      1.0000 0.20299  0.02196  0.63752  Biso   1.000  Pb
  Pb2      1.0000 0.44375  0.33130  0.86248  Biso   1.000  Pb
  Pb3      1.0000 0.97804  0.79701  0.36248  Biso   1.000  Pb
  Pb4      1.0000 0.66870  0.55625  0.13752  Biso   1.000  Pb
  Pb5      1.0000 0.79701  0.97804  0.36248  Biso   1.000  Pb
  Pb6      1.0000 0.55625  0.66870  0.13752  Biso   1.000  Pb
  Pb7      1.0000 0.02196  0.20299  0.63752  Biso   1.000  Pb
  Pb8      1.0000 0.33130  0.44375  0.86248  Biso   1.000  Pb
  Nb1      1.0000 0.76953  0.76953  0.48943  Biso   1.000  Nb
  Nb2      1.0000 0.23047  0.23047  0.51057  Biso   1.000  Nb
  Nb3      1.0000 0.74838  0.74838  0.01057  Biso   1.000  Nb
  Nb4      1.0000 0.25162  0.25162  0.98943  Biso   1.000  Nb
  Ta1      1.0000 0.83603  0.54887  0.53124  Biso   1.000  Ta
  Ta2      1.0000 0.45113  0.16397  0.46876  Biso   1.000  Ta
  Ta3      1.0000 0.89852  0.61136  0.96876  Biso   1.000  Ta
  Ta4      1.0000 0.38864  0.10148  0.03124  Biso   1.000  Ta
  Ta5      1.0000 0.54887  0.83603  0.53124  Biso   1.000  Ta
  Ta6      1.0000 0.16397  0.45113  0.46876  Biso   1.000  Ta
  Ta7      1.0000 0.61136  0.89852  0.96876  Biso   1.000  Ta
  Ta8      1.0000 0.10148  0.38864  0.03124  Biso   1.000  Ta
  O1       1.0000 0.74631  0.74631  0.75000  Biso   1.000  O
  O2       1.0000 0.25369  0.25369  0.75000  Biso   1.000  O
  O3       1.0000 0.74631  0.74631  0.25000  Biso   1.000  O
  O4       1.0000 0.25369  0.25369  0.25000  Biso   1.000  O
  O5       1.0000 0.50000  0.50000  0.50000  Biso   1.000  O
  O6       1.0000 0.00000  0.00000  0.50000  Biso   1.000  O
  O7       1.0000 0.50000  0.50000  0.00000  Biso   1.000  O
  O8       1.0000 0.00000  0.00000  0.00000  Biso   1.000  O
  O9       1.0000 0.94233  0.81209  0.40279  Biso   1.000  O
  O10      1.0000 0.18791  0.05767  0.59721  Biso   1.000  O
  O11      1.0000 0.74791  0.61767  0.09721  Biso   1.000  O
  O12      1.0000 0.38233  0.25209  0.90279  Biso   1.000  O
  O13      1.0000 0.81209  0.94233  0.40279  Biso   1.000  O
  O14      1.0000 0.05767  0.18791  0.59721  Biso   1.000  O
  O15      1.0000 0.61767  0.74791  0.09721  Biso   1.000  O
  O16      1.0000 0.25209  0.38233  0.90279  Biso   1.000  O
  O17      1.0000 0.80246  0.68388  0.75000  Biso   1.000  O
  O18      1.0000 0.45990  0.05376  0.75000  Biso   1.000  O
  O19      1.0000 0.94624  0.54010  0.25000  Biso   1.000  O
  O20      1.0000 0.31612  0.19754  0.25000  Biso   1.000  O
  O21      1.0000 0.54010  0.94624  0.25000  Biso   1.000  O
  O22      1.0000 0.19754  0.31612  0.25000  Biso   1.000  O
  O23      1.0000 0.68388  0.80246  0.75000  Biso   1.000  O
  O24      1.0000 0.05376  0.45990  0.75000  Biso   1.000  O
  O25      1.0000 0.50322  0.49678  0.50000  Biso   1.000  O
  O26      1.0000 0.73442  0.26558  0.50000  Biso   1.000  O
  O27      1.0000 0.35944  0.64056  0.00000  Biso   1.000  O
  O28      1.0000 0.87820  0.12180  0.00000  Biso   1.000  O
  O29      1.0000 0.49678  0.50322  0.50000  Biso   1.000  O
  O30      1.0000 0.26558  0.73442  0.50000  Biso   1.000  O
  O31      1.0000 0.64056  0.35944  0.00000  Biso   1.000  O
  O32      1.0000 0.12180  0.87820  0.00000  Biso   1.000  O
  O33      1.0000 0.78368  0.37994  0.55424  Biso   1.000  O
  O34      1.0000 0.62006  0.21632  0.44576  Biso   1.000  O
  O35      1.0000 0.89217  0.48843  0.94576  Biso   1.000  O
  O36      1.0000 0.51157  0.10783  0.05424  Biso   1.000  O
  O37      1.0000 0.37994  0.78368  0.55424  Biso   1.000  O
  O38      1.0000 0.21632  0.62006  0.44576  Biso   1.000  O
  O39      1.0000 0.48843  0.89217  0.94576  Biso   1.000  O
  O40      1.0000 0.10783  0.51157  0.05424  Biso   1.000  O
