data_image0
_cell_length_a       15.6806
_cell_length_b       15.6806
_cell_length_c       5.55277
_cell_angle_alpha    79.8016
_cell_angle_beta     79.8016
_cell_angle_gamma    20.3969

_symmetry_space_group_name_H-M    "P 1"
_symmetry_int_tables_number       1

loop_
  _symmetry_equiv_pos_as_xyz
  'x, y, z'

loop_
  _atom_site_label
  _atom_site_occupancy
  _atom_site_fract_x
  _atom_site_fract_y
  _atom_site_fract_z
  _atom_site_thermal_displace_type
  _atom_site_B_iso_or_equiv
  _atom_site_type_symbol
  K1       1.0000 0.00000  0.50000  0.00000  Biso   1.000  K
  K2       1.0000 0.50000  0.00000  0.50000  Biso   1.000  K
  Pb1      1.0000 0.86836  0.27838  0.13164  Biso   1.000  Pb
  Pb2      1.0000 0.27838  0.86836  0.72162  Biso   1.000  Pb
  Pb3      1.0000 0.13164  0.72162  0.86836  Biso   1.000  Pb
  Pb4      1.0000 0.72162  0.13164  0.27838  Biso   1.000  Pb
  Nb1      1.0000 0.24577  0.75423  0.24577  Biso   1.000  Nb
  Nb2      1.0000 0.75423  0.24577  0.75423  Biso   1.000  Nb
  Ta1      1.0000 0.40608  0.88108  0.11892  Biso   1.000  Ta
  Ta2      1.0000 0.88108  0.40608  0.59392  Biso   1.000  Ta
  Ta3      1.0000 0.11892  0.59392  0.40608  Biso   1.000  Ta
  Ta4      1.0000 0.59392  0.11892  0.88108  Biso   1.000  Ta
  O1       1.0000 0.00000  0.00000  0.50000  Biso   1.000  O
  O2       1.0000 0.50000  0.50000  0.00000  Biso   1.000  O
  O3       1.0000 0.50000  0.50000  0.50000  Biso   1.000  O
  O4       1.0000 0.00000  0.00000  0.00000  Biso   1.000  O
  O5       1.0000 0.27624  0.85400  0.14600  Biso   1.000  O
  O6       1.0000 0.85400  0.27624  0.72376  Biso   1.000  O
  O7       1.0000 0.14600  0.72376  0.27624  Biso   1.000  O
  O8       1.0000 0.72376  0.14600  0.85400  Biso   1.000  O
  O9       1.0000 0.13118  0.13118  0.36882  Biso   1.000  O
  O10      1.0000 0.63118  0.63118  0.86882  Biso   1.000  O
  O11      1.0000 0.36882  0.36882  0.13118  Biso   1.000  O
  O12      1.0000 0.86882  0.86882  0.63118  Biso   1.000  O
  O13      1.0000 0.39758  0.39758  0.60242  Biso   1.000  O
  O14      1.0000 0.84006  0.84006  0.15994  Biso   1.000  O
  O15      1.0000 0.60242  0.60242  0.39758  Biso   1.000  O
  O16      1.0000 0.15994  0.15994  0.84006  Biso   1.000  O
  O17      1.0000 0.47357  0.93017  0.06983  Biso   1.000  O
  O18      1.0000 0.93017  0.47357  0.52643  Biso   1.000  O
  O19      1.0000 0.06983  0.52643  0.47357  Biso   1.000  O
  O20      1.0000 0.52643  0.06983  0.93017  Biso   1.000  O
