data_image0
_cell_length_a       5.55277
_cell_length_b       30.3622
_cell_length_c       7.8528
_cell_angle_alpha    90
_cell_angle_beta     135
_cell_angle_gamma    90

_symmetry_space_group_name_H-M    "P 1"
_symmetry_int_tables_number       1

loop_
  _symmetry_equiv_pos_as_xyz
  'x, y, z'

loop_
  _atom_site_label
  _atom_site_occupancy
  _atom_site_fract_x
  _atom_site_fract_y
  _atom_site_fract_z
  _atom_site_thermal_displace_type
  _atom_site_B_iso_or_equiv
  _atom_site_type_symbol
  K1       1.0000 0.50000  0.00000  0.50000  Biso   1.000  K
  K2       1.0000 0.50000  0.50000  0.50000  Biso   1.000  K
  K3       1.0000 0.50000  0.00000  0.00000  Biso   1.000  K
  K4       1.0000 0.50000  0.50000  0.00000  Biso   1.000  K
  Pb1      1.0000 0.37875  0.82337  0.45501  Biso   1.000  Pb
  Pb2      1.0000 0.55871  0.32337  0.54499  Biso   1.000  Pb
  Pb3      1.0000 0.62125  0.82337  0.04499  Biso   1.000  Pb
  Pb4      1.0000 0.44129  0.32337  0.95501  Biso   1.000  Pb
  Pb5      1.0000 0.55871  0.67663  0.04499  Biso   1.000  Pb
  Pb6      1.0000 0.37875  0.17663  0.95501  Biso   1.000  Pb
  Pb7      1.0000 0.44129  0.67663  0.45501  Biso   1.000  Pb
  Pb8      1.0000 0.62125  0.17663  0.54499  Biso   1.000  Pb
  Nb1      1.0000 0.00000  0.75000  0.00423  Biso   1.000  Nb
  Nb2      1.0000 0.00000  0.25000  0.99577  Biso   1.000  Nb
  Nb3      1.0000 0.00000  0.75000  0.49577  Biso   1.000  Nb
  Nb4      1.0000 0.00000  0.25000  0.50423  Biso   1.000  Nb
  Ta1      1.0000 0.00702  0.89358  0.98750  Biso   1.000  Ta
  Ta2      1.0000 0.00702  0.39358  0.01250  Biso   1.000  Ta
  Ta3      1.0000 0.99298  0.89358  0.51250  Biso   1.000  Ta
  Ta4      1.0000 0.99298  0.39358  0.48750  Biso   1.000  Ta
  Ta5      1.0000 0.99298  0.60642  0.98750  Biso   1.000  Ta
  Ta6      1.0000 0.99298  0.10642  0.01250  Biso   1.000  Ta
  Ta7      1.0000 0.00702  0.60642  0.51250  Biso   1.000  Ta
  Ta8      1.0000 0.00702  0.10642  0.48750  Biso   1.000  Ta
  O1       1.0000 0.50000  0.77202  0.25000  Biso   1.000  O
  O2       1.0000 0.50000  0.27202  0.25000  Biso   1.000  O
  O3       1.0000 0.50000  0.72798  0.75000  Biso   1.000  O
  O4       1.0000 0.50000  0.22798  0.75000  Biso   1.000  O
  O5       1.0000 1.00000  0.77202  0.75000  Biso   1.000  O
  O6       1.0000 1.00000  0.27202  0.75000  Biso   1.000  O
  O7       1.0000 0.00000  0.72798  0.25000  Biso   1.000  O
  O8       1.0000 0.00000  0.22798  0.25000  Biso   1.000  O
  O9       1.0000 0.95793  0.81512  0.03888  Biso   1.000  O
  O10      1.0000 0.95793  0.31512  0.96112  Biso   1.000  O
  O11      1.0000 0.04207  0.81512  0.46112  Biso   1.000  O
  O12      1.0000 0.04207  0.31512  0.53888  Biso   1.000  O
  O13      1.0000 0.04207  0.68488  0.03888  Biso   1.000  O
  O14      1.0000 0.04207  0.18488  0.96112  Biso   1.000  O
  O15      1.0000 0.95793  0.68488  0.46112  Biso   1.000  O
  O16      1.0000 0.95793  0.18488  0.53888  Biso   1.000  O
  O17      1.0000 0.50000  0.86882  0.25000  Biso   1.000  O
  O18      1.0000 0.50000  0.36882  0.25000  Biso   1.000  O
  O19      1.0000 0.50000  0.89354  0.75000  Biso   1.000  O
  O20      1.0000 0.50000  0.39354  0.75000  Biso   1.000  O
  O21      1.0000 0.50000  0.63118  0.75000  Biso   1.000  O
  O22      1.0000 0.50000  0.13118  0.75000  Biso   1.000  O
  O23      1.0000 0.50000  0.60646  0.25000  Biso   1.000  O
  O24      1.0000 0.50000  0.10646  0.25000  Biso   1.000  O
  O25      1.0000 1.00000  0.63521  0.75000  Biso   1.000  O
  O26      1.0000 1.00000  0.07770  0.75000  Biso   1.000  O
  O27      1.0000 0.00000  0.60243  0.25000  Biso   1.000  O
  O28      1.0000 0.00000  0.15994  0.25000  Biso   1.000  O
  O29      1.0000 1.00000  0.84006  0.75000  Biso   1.000  O
  O30      1.0000 1.00000  0.39757  0.75000  Biso   1.000  O
  O31      1.0000 0.00000  0.92230  0.25000  Biso   1.000  O
  O32      1.0000 0.00000  0.36479  0.25000  Biso   1.000  O
  O33      1.0000 0.02490  0.95187  0.97830  Biso   1.000  O
  O34      1.0000 0.02490  0.45187  0.02170  Biso   1.000  O
  O35      1.0000 0.97510  0.95187  0.52170  Biso   1.000  O
  O36      1.0000 0.97510  0.45187  0.47830  Biso   1.000  O
  O37      1.0000 0.97510  0.54813  0.97830  Biso   1.000  O
  O38      1.0000 0.97510  0.04813  0.02170  Biso   1.000  O
  O39      1.0000 0.02490  0.54813  0.52170  Biso   1.000  O
  O40      1.0000 0.02490  0.04813  0.47830  Biso   1.000  O
