data_image0
_cell_length_a       15.6806
_cell_length_b       15.6806
_cell_length_c       5.55277
_cell_angle_alpha    100.198
_cell_angle_beta     100.198
_cell_angle_gamma    150.998

_symmetry_space_group_name_H-M    "P 1"
_symmetry_int_tables_number       1

loop_
  _symmetry_equiv_pos_as_xyz
  'x, y, z'

loop_
  _atom_site_label
  _atom_site_occupancy
  _atom_site_fract_x
  _atom_site_fract_y
  _atom_site_fract_z
  _atom_site_thermal_displace_type
  _atom_site_B_iso_or_equiv
  _atom_site_type_symbol
  K1       1.0000 0.25000  0.25000  0.46633  Biso   1.000  K
  K2       1.0000 0.75000  0.75000  0.53367  Biso   1.000  K
  Pb1      1.0000 0.44392  0.09066  0.52809  Biso   1.000  Pb
  Pb2      1.0000 0.94392  0.59066  0.47191  Biso   1.000  Pb
  Pb3      1.0000 0.09066  0.44392  0.52809  Biso   1.000  Pb
  Pb4      1.0000 0.59066  0.94392  0.47191  Biso   1.000  Pb
  Nb1      1.0000 0.51680  0.01680  0.00000  Biso   1.000  Nb
  Nb2      1.0000 0.01680  0.51680  0.00000  Biso   1.000  Nb
  Ta1      1.0000 0.34420  0.13136  0.00646  Biso   1.000  Ta
  Ta2      1.0000 0.84420  0.63136  0.99354  Biso   1.000  Ta
  Ta3      1.0000 0.63136  0.84420  0.99354  Biso   1.000  Ta
  Ta4      1.0000 0.13136  0.34420  0.00646  Biso   1.000  Ta
  O1       1.0000 0.68760  0.22871  0.50000  Biso   1.000  O
  O2       1.0000 0.22871  0.68760  0.50000  Biso   1.000  O
  O3       1.0000 0.75077  0.20966  0.00000  Biso   1.000  O
  O4       1.0000 0.20966  0.75077  0.00000  Biso   1.000  O
  O5       1.0000 0.41180  0.04204  0.96083  Biso   1.000  O
  O6       1.0000 0.91180  0.54204  0.03917  Biso   1.000  O
  O7       1.0000 0.54204  0.91180  0.03917  Biso   1.000  O
  O8       1.0000 0.04204  0.41180  0.96083  Biso   1.000  O
  O9       1.0000 0.61820  0.35670  0.50000  Biso   1.000  O
  O10      1.0000 0.09434  0.88056  0.50000  Biso   1.000  O
  O11      1.0000 0.35670  0.61820  0.50000  Biso   1.000  O
  O12      1.0000 0.88056  0.09434  0.50000  Biso   1.000  O
  O13      1.0000 0.85952  0.12102  0.00000  Biso   1.000  O
  O14      1.0000 0.38338  0.59716  0.00000  Biso   1.000  O
  O15      1.0000 0.59716  0.38338  0.00000  Biso   1.000  O
  O16      1.0000 0.12102  0.85952  0.00000  Biso   1.000  O
  O17      1.0000 0.29073  0.19447  0.02554  Biso   1.000  O
  O18      1.0000 0.79073  0.69447  0.97446  Biso   1.000  O
  O19      1.0000 0.69447  0.79073  0.97446  Biso   1.000  O
  O20      1.0000 0.19447  0.29073  0.02554  Biso   1.000  O
