data_image0
_cell_length_a       16.1647
_cell_length_b       7.8528
_cell_length_c       16.1647
_cell_angle_alpha    75.9423
_cell_angle_beta     28.1154
_cell_angle_gamma    75.9423

_symmetry_space_group_name_H-M    "P 1"
_symmetry_int_tables_number       1

loop_
  _symmetry_equiv_pos_as_xyz
  'x, y, z'

loop_
  _atom_site_label
  _atom_site_occupancy
  _atom_site_fract_x
  _atom_site_fract_y
  _atom_site_fract_z
  _atom_site_thermal_displace_type
  _atom_site_B_iso_or_equiv
  _atom_site_type_symbol
  K1       1.0000 0.07070  0.07070  0.92930  Biso   1.000  K
  K2       1.0000 0.42930  0.42930  0.57070  Biso   1.000  K
  K3       1.0000 0.92930  0.57070  0.07070  Biso   1.000  K
  K4       1.0000 0.57070  0.92930  0.42930  Biso   1.000  K
  Pb1      1.0000 0.80638  0.15964  0.84036  Biso   1.000  Pb
  Pb2      1.0000 0.30579  0.65905  0.34095  Biso   1.000  Pb
  Pb3      1.0000 0.80579  0.65964  0.84095  Biso   1.000  Pb
  Pb4      1.0000 0.30638  0.15905  0.34036  Biso   1.000  Pb
  Pb5      1.0000 0.65964  0.80579  0.69362  Biso   1.000  Pb
  Pb6      1.0000 0.15905  0.30638  0.19421  Biso   1.000  Pb
  Pb7      1.0000 0.65905  0.30579  0.69421  Biso   1.000  Pb
  Pb8      1.0000 0.15964  0.80638  0.19362  Biso   1.000  Pb
  Nb1      1.0000 0.48320  0.98320  0.01680  Biso   1.000  Nb
  Nb2      1.0000 0.98320  0.48320  0.51680  Biso   1.000  Nb
  Nb3      1.0000 0.48320  0.48320  0.01680  Biso   1.000  Nb
  Nb4      1.0000 0.98320  0.98320  0.51680  Biso   1.000  Nb
  Ta1      1.0000 0.65580  0.86864  0.13136  Biso   1.000  Ta
  Ta2      1.0000 0.15580  0.36864  0.63136  Biso   1.000  Ta
  Ta3      1.0000 0.65580  0.36864  0.13136  Biso   1.000  Ta
  Ta4      1.0000 0.15580  0.86864  0.63136  Biso   1.000  Ta
  Ta5      1.0000 0.36864  0.15580  0.84420  Biso   1.000  Ta
  Ta6      1.0000 0.86864  0.65580  0.34420  Biso   1.000  Ta
  Ta7      1.0000 0.36864  0.65580  0.84420  Biso   1.000  Ta
  Ta8      1.0000 0.86864  0.15580  0.34420  Biso   1.000  Ta
  O1       1.0000 0.54185  0.26979  0.95815  Biso   1.000  O
  O2       1.0000 0.04185  0.76979  0.45815  Biso   1.000  O
  O3       1.0000 0.54185  0.76979  0.95815  Biso   1.000  O
  O4       1.0000 0.04185  0.26979  0.45815  Biso   1.000  O
  O5       1.0000 0.26979  0.04185  0.23021  Biso   1.000  O
  O6       1.0000 0.76979  0.54185  0.73021  Biso   1.000  O
  O7       1.0000 0.26979  0.54185  0.23021  Biso   1.000  O
  O8       1.0000 0.76979  0.04185  0.73021  Biso   1.000  O
  O9       1.0000 0.58820  0.95796  0.04204  Biso   1.000  O
  O10      1.0000 0.08820  0.45796  0.54204  Biso   1.000  O
  O11      1.0000 0.58820  0.45796  0.04204  Biso   1.000  O
  O12      1.0000 0.08820  0.95796  0.54204  Biso   1.000  O
  O13      1.0000 0.45796  0.08820  0.91180  Biso   1.000  O
  O14      1.0000 0.95796  0.58820  0.41180  Biso   1.000  O
  O15      1.0000 0.45796  0.58820  0.91180  Biso   1.000  O
  O16      1.0000 0.95796  0.08820  0.41180  Biso   1.000  O
  O17      1.0000 0.64334  0.12855  0.11902  Biso   1.000  O
  O18      1.0000 0.14413  0.62855  0.61823  Biso   1.000  O
  O19      1.0000 0.64413  0.62855  0.11823  Biso   1.000  O
  O20      1.0000 0.14334  0.12855  0.61902  Biso   1.000  O
  O21      1.0000 0.38098  0.89091  0.85666  Biso   1.000  O
  O22      1.0000 0.88177  0.39091  0.35587  Biso   1.000  O
  O23      1.0000 0.38177  0.39091  0.85587  Biso   1.000  O
  O24      1.0000 0.88098  0.89091  0.35666  Biso   1.000  O
  O25      1.0000 0.12855  0.14334  0.10909  Biso   1.000  O
  O26      1.0000 0.62855  0.64413  0.60909  Biso   1.000  O
  O27      1.0000 0.12855  0.64334  0.10909  Biso   1.000  O
  O28      1.0000 0.62855  0.14413  0.60909  Biso   1.000  O
  O29      1.0000 0.39091  0.88177  0.37145  Biso   1.000  O
  O30      1.0000 0.89091  0.38098  0.87145  Biso   1.000  O
  O31      1.0000 0.39091  0.38177  0.37145  Biso   1.000  O
  O32      1.0000 0.89091  0.88098  0.87145  Biso   1.000  O
  O33      1.0000 0.70927  0.80553  0.19447  Biso   1.000  O
  O34      1.0000 0.20927  0.30553  0.69447  Biso   1.000  O
  O35      1.0000 0.70927  0.30553  0.19447  Biso   1.000  O
  O36      1.0000 0.20927  0.80553  0.69447  Biso   1.000  O
  O37      1.0000 0.30553  0.20927  0.79073  Biso   1.000  O
  O38      1.0000 0.80553  0.70927  0.29073  Biso   1.000  O
  O39      1.0000 0.30553  0.70927  0.79073  Biso   1.000  O
  O40      1.0000 0.80553  0.20927  0.29073  Biso   1.000  O
