data_image0
_cell_length_a       15.1811
_cell_length_b       5.55277
_cell_length_c       5.55277
_cell_angle_alpha    90
_cell_angle_beta     90
_cell_angle_gamma    90

_symmetry_space_group_name_H-M    "P 1"
_symmetry_int_tables_number       1

loop_
  _symmetry_equiv_pos_as_xyz
  'x, y, z'

loop_
  _atom_site_label
  _atom_site_occupancy
  _atom_site_fract_x
  _atom_site_fract_y
  _atom_site_fract_z
  _atom_site_thermal_displace_type
  _atom_site_B_iso_or_equiv
  _atom_site_type_symbol
  K1       1.0000 0.50000  0.00000  0.50000  Biso   1.000  K
  K2       1.0000 0.50000  0.50000  0.00000  Biso   1.000  K
  Pb1      1.0000 0.14674  0.96873  0.53457  Biso   1.000  Pb
  Pb2      1.0000 0.14674  0.53127  0.03457  Biso   1.000  Pb
  Pb3      1.0000 0.85326  0.46873  0.03457  Biso   1.000  Pb
  Pb4      1.0000 0.85326  0.03127  0.53457  Biso   1.000  Pb
  Nb1      1.0000 0.00000  0.00000  0.03360  Biso   1.000  Nb
  Nb2      1.0000 0.00000  0.50000  0.53360  Biso   1.000  Nb
  Ta1      1.0000 0.28716  0.00702  0.97556  Biso   1.000  Ta
  Ta2      1.0000 0.28716  0.49298  0.47556  Biso   1.000  Ta
  Ta3      1.0000 0.71284  0.99298  0.97556  Biso   1.000  Ta
  Ta4      1.0000 0.71284  0.50702  0.47556  Biso   1.000  Ta
  O1       1.0000 0.04404  0.22794  0.68837  Biso   1.000  O
  O2       1.0000 0.95596  0.72794  0.18837  Biso   1.000  O
  O3       1.0000 0.04404  0.27206  0.18837  Biso   1.000  O
  O4       1.0000 0.95596  0.77206  0.68837  Biso   1.000  O
  O5       1.0000 0.13024  0.95793  0.95384  Biso   1.000  O
  O6       1.0000 0.13024  0.54207  0.45384  Biso   1.000  O
  O7       1.0000 0.86976  0.04207  0.95384  Biso   1.000  O
  O8       1.0000 0.86976  0.45793  0.45384  Biso   1.000  O
  O9       1.0000 0.23763  0.24718  0.72772  Biso   1.000  O
  O10      1.0000 0.28709  0.74718  0.22772  Biso   1.000  O
  O11      1.0000 0.76237  0.74718  0.22772  Biso   1.000  O
  O12      1.0000 0.71291  0.24718  0.72772  Biso   1.000  O
  O13      1.0000 0.71291  0.25282  0.22772  Biso   1.000  O
  O14      1.0000 0.76237  0.75282  0.72772  Biso   1.000  O
  O15      1.0000 0.23763  0.25282  0.22772  Biso   1.000  O
  O16      1.0000 0.28709  0.75282  0.72772  Biso   1.000  O
  O17      1.0000 0.40374  0.02490  0.98520  Biso   1.000  O
  O18      1.0000 0.40374  0.47510  0.48520  Biso   1.000  O
  O19      1.0000 0.59626  0.97510  0.98520  Biso   1.000  O
  O20      1.0000 0.59626  0.52490  0.48520  Biso   1.000  O
