data_image0
_cell_length_a       15.6806
_cell_length_b       15.6806
_cell_length_c       15.6806
_cell_angle_alpha    29.0021
_cell_angle_beta     159.603
_cell_angle_gamma    159.603

_symmetry_space_group_name_H-M    "P 1"
_symmetry_int_tables_number       1

loop_
  _symmetry_equiv_pos_as_xyz
  'x, y, z'

loop_
  _atom_site_label
  _atom_site_occupancy
  _atom_site_fract_x
  _atom_site_fract_y
  _atom_site_fract_z
  _atom_site_thermal_displace_type
  _atom_site_B_iso_or_equiv
  _atom_site_type_symbol
  K1       1.0000 0.75000  0.75000  0.00000  Biso   1.000  K
  K2       1.0000 0.75000  0.25000  0.50000  Biso   1.000  K
  Pb1      1.0000 0.78457  0.60794  0.82337  Biso   1.000  Pb
  Pb2      1.0000 0.78457  0.10794  0.32337  Biso   1.000  Pb
  Pb3      1.0000 0.78457  0.96120  0.17663  Biso   1.000  Pb
  Pb4      1.0000 0.78457  0.46120  0.67663  Biso   1.000  Pb
  Nb1      1.0000 0.28360  0.03360  0.75000  Biso   1.000  Nb
  Nb2      1.0000 0.28360  0.53360  0.25000  Biso   1.000  Nb
  Ta1      1.0000 0.22556  0.11914  0.89358  Biso   1.000  Ta
  Ta2      1.0000 0.22556  0.61914  0.39358  Biso   1.000  Ta
  Ta3      1.0000 0.22556  0.83198  0.60642  Biso   1.000  Ta
  Ta4      1.0000 0.22556  0.33198  0.10642  Biso   1.000  Ta
  O1       1.0000 0.26630  0.73837  0.02794  Biso   1.000  O
  O2       1.0000 0.06632  0.13837  0.42794  Biso   1.000  O
  O3       1.0000 0.71043  0.23837  0.97206  Biso   1.000  O
  O4       1.0000 0.71043  0.63837  0.57206  Biso   1.000  O
  O5       1.0000 0.20384  0.01896  0.81512  Biso   1.000  O
  O6       1.0000 0.20384  0.51896  0.31512  Biso   1.000  O
  O7       1.0000 0.20384  0.88872  0.68488  Biso   1.000  O
  O8       1.0000 0.20384  0.38872  0.18488  Biso   1.000  O
  O9       1.0000 0.22351  0.85821  0.12766  Biso   1.000  O
  O10      1.0000 0.22628  0.35959  0.62905  Biso   1.000  O
  O11      1.0000 0.22628  0.09723  0.36669  Biso   1.000  O
  O12      1.0000 0.22351  0.59585  0.86530  Biso   1.000  O
  O13      1.0000 0.73054  0.09585  0.87234  Biso   1.000  O
  O14      1.0000 0.73054  0.59723  0.37095  Biso   1.000  O
  O15      1.0000 0.73054  0.35821  0.13470  Biso   1.000  O
  O16      1.0000 0.73054  0.85959  0.63331  Biso   1.000  O
  O17      1.0000 0.23520  0.18707  0.95187  Biso   1.000  O
  O18      1.0000 0.23520  0.68707  0.45187  Biso   1.000  O
  O19      1.0000 0.23520  0.78333  0.54813  Biso   1.000  O
  O20      1.0000 0.23520  0.28333  0.04813  Biso   1.000  O
