data_image0
_cell_length_a       5.55277
_cell_length_b       15.1811
_cell_length_c       5.55277
_cell_angle_alpha    90
_cell_angle_beta     90
_cell_angle_gamma    90

_symmetry_space_group_name_H-M    "P 1"
_symmetry_int_tables_number       1

loop_
  _symmetry_equiv_pos_as_xyz
  'x, y, z'

loop_
  _atom_site_label
  _atom_site_occupancy
  _atom_site_fract_x
  _atom_site_fract_y
  _atom_site_fract_z
  _atom_site_thermal_displace_type
  _atom_site_B_iso_or_equiv
  _atom_site_type_symbol
  K1       1.0000 0.07528  0.50000  0.42472  Biso   1.000  K
  K2       1.0000 0.42472  0.50000  0.07528  Biso   1.000  K
  Pb1      1.0000 0.97515  0.85326  0.55942  Biso   1.000  Pb
  Pb2      1.0000 0.52485  0.85326  0.00972  Biso   1.000  Pb
  Pb3      1.0000 0.52485  0.14674  0.00972  Biso   1.000  Pb
  Pb4      1.0000 0.97515  0.14674  0.55942  Biso   1.000  Pb
  Nb1      1.0000 0.99938  0.00000  0.03298  Biso   1.000  Nb
  Nb2      1.0000 0.50062  0.00000  0.53423  Biso   1.000  Nb
  Ta1      1.0000 0.01164  0.71284  0.98720  Biso   1.000  Ta
  Ta2      1.0000 0.48836  0.71284  0.46393  Biso   1.000  Ta
  Ta3      1.0000 0.01164  0.28716  0.98720  Biso   1.000  Ta
  Ta4      1.0000 0.48836  0.28716  0.46393  Biso   1.000  Ta
  O1       1.0000 0.22794  0.00000  0.68837  Biso   1.000  O
  O2       1.0000 0.72794  0.00000  0.18837  Biso   1.000  O
  O3       1.0000 0.27206  0.00000  0.18837  Biso   1.000  O
  O4       1.0000 0.77206  0.00000  0.68837  Biso   1.000  O
  O5       1.0000 0.98845  0.86976  0.94229  Biso   1.000  O
  O6       1.0000 0.51155  0.86976  0.46539  Biso   1.000  O
  O7       1.0000 0.98845  0.13024  0.94229  Biso   1.000  O
  O8       1.0000 0.51155  0.13024  0.46539  Biso   1.000  O
  O9       1.0000 0.24718  0.73764  0.72772  Biso   1.000  O
  O10      1.0000 0.74718  0.73764  0.22772  Biso   1.000  O
  O11      1.0000 0.74718  0.26236  0.22772  Biso   1.000  O
  O12      1.0000 0.24718  0.26236  0.72772  Biso   1.000  O
  O13      1.0000 0.25282  0.22759  0.22772  Biso   1.000  O
  O14      1.0000 0.75282  0.29713  0.72772  Biso   1.000  O
  O15      1.0000 0.25282  0.77241  0.22772  Biso   1.000  O
  O16      1.0000 0.75282  0.70287  0.72772  Biso   1.000  O
  O17      1.0000 0.03127  0.59626  0.01647  Biso   1.000  O
  O18      1.0000 0.46873  0.59626  0.45393  Biso   1.000  O
  O19      1.0000 0.03127  0.40374  0.01647  Biso   1.000  O
  O20      1.0000 0.46873  0.40374  0.45393  Biso   1.000  O
