data_image0
_cell_length_a       30.3622
_cell_length_b       3.9264
_cell_length_c       3.9264
_cell_angle_alpha    90
_cell_angle_beta     90
_cell_angle_gamma    90

_symmetry_space_group_name_H-M    "P 1"
_symmetry_int_tables_number       1

loop_
  _symmetry_equiv_pos_as_xyz
  'x, y, z'

loop_
  _atom_site_label
  _atom_site_occupancy
  _atom_site_fract_x
  _atom_site_fract_y
  _atom_site_fract_z
  _atom_site_thermal_displace_type
  _atom_site_B_iso_or_equiv
  _atom_site_type_symbol
  K1       1.0000 0.75000  0.40107  0.59893  Biso   1.000  K
  K2       1.0000 0.25000  0.59893  0.40107  Biso   1.000  K
  Pb1      1.0000 0.92663  0.53646  0.53268  Biso   1.000  Pb
  Pb2      1.0000 0.42663  0.53268  0.53646  Biso   1.000  Pb
  Pb3      1.0000 0.07337  0.53268  0.53646  Biso   1.000  Pb
  Pb4      1.0000 0.57337  0.53646  0.53268  Biso   1.000  Pb
  Nb1      1.0000 0.00000  0.03360  0.03360  Biso   1.000  Nb
  Nb2      1.0000 0.50000  0.03360  0.03360  Biso   1.000  Nb
  Ta1      1.0000 0.85642  0.98109  0.97003  Biso   1.000  Ta
  Ta2      1.0000 0.35642  0.97003  0.98109  Biso   1.000  Ta
  Ta3      1.0000 0.14358  0.97003  0.98109  Biso   1.000  Ta
  Ta4      1.0000 0.64358  0.98109  0.97003  Biso   1.000  Ta
  O1       1.0000 0.00000  0.46043  0.91631  Biso   1.000  O
  O2       1.0000 0.50000  0.46043  0.91631  Biso   1.000  O
  O3       1.0000 0.00000  0.91631  0.46043  Biso   1.000  O
  O4       1.0000 0.50000  0.91631  0.46043  Biso   1.000  O
  O5       1.0000 0.93488  0.95508  0.95259  Biso   1.000  O
  O6       1.0000 0.43488  0.95259  0.95508  Biso   1.000  O
  O7       1.0000 0.06512  0.95259  0.95508  Biso   1.000  O
  O8       1.0000 0.56512  0.95508  0.95259  Biso   1.000  O
  O9       1.0000 0.86882  0.48248  0.97294  Biso   1.000  O
  O10      1.0000 0.36882  0.47861  0.97685  Biso   1.000  O
  O11      1.0000 0.13118  0.47861  0.97685  Biso   1.000  O
  O12      1.0000 0.63118  0.48248  0.97294  Biso   1.000  O
  O13      1.0000 0.13118  0.97294  0.48248  Biso   1.000  O
  O14      1.0000 0.63118  0.97685  0.47861  Biso   1.000  O
  O15      1.0000 0.86882  0.97685  0.47861  Biso   1.000  O
  O16      1.0000 0.36882  0.97294  0.48248  Biso   1.000  O
  O17      1.0000 0.79813  0.99322  0.97719  Biso   1.000  O
  O18      1.0000 0.29813  0.97719  0.99322  Biso   1.000  O
  O19      1.0000 0.20187  0.97719  0.99322  Biso   1.000  O
  O20      1.0000 0.70187  0.99322  0.97719  Biso   1.000  O
