data_image0
_cell_length_a       15.1811
_cell_length_b       3.9264
_cell_length_c       3.9264
_cell_angle_alpha    90
_cell_angle_beta     90
_cell_angle_gamma    90

_symmetry_space_group_name_H-M    "P 1"
_symmetry_int_tables_number       1

loop_
  _symmetry_equiv_pos_as_xyz
  'x, y, z'

loop_
  _atom_site_label
  _atom_site_occupancy
  _atom_site_fract_x
  _atom_site_fract_y
  _atom_site_fract_z
  _atom_site_thermal_displace_type
  _atom_site_B_iso_or_equiv
  _atom_site_type_symbol
  K1       1.0000 0.50000  0.50000  0.50000  Biso   1.000  K
  Pb1      1.0000 0.85326  0.53457  0.53457  Biso   1.000  Pb
  Pb2      1.0000 0.14674  0.53457  0.53457  Biso   1.000  Pb
  Nb1      1.0000 0.00000  0.03360  0.03360  Biso   1.000  Nb
  Ta1      1.0000 0.71284  0.97556  0.97556  Biso   1.000  Ta
  Ta2      1.0000 0.28716  0.97556  0.97556  Biso   1.000  Ta
  O1       1.0000 0.00000  0.46043  0.91631  Biso   1.000  O
  O2       1.0000 0.00000  0.91631  0.46043  Biso   1.000  O
  O3       1.0000 0.86976  0.95384  0.95384  Biso   1.000  O
  O4       1.0000 0.13024  0.95384  0.95384  Biso   1.000  O
  O5       1.0000 0.73764  0.48054  0.97489  Biso   1.000  O
  O6       1.0000 0.26236  0.48054  0.97489  Biso   1.000  O
  O7       1.0000 0.26236  0.97489  0.48054  Biso   1.000  O
  O8       1.0000 0.73764  0.97489  0.48054  Biso   1.000  O
  O9       1.0000 0.59626  0.98520  0.98520  Biso   1.000  O
  O10      1.0000 0.40374  0.98520  0.98520  Biso   1.000  O
