data_image0
_cell_length_a       16.1647
_cell_length_b       7.8528
_cell_length_c       16.1647
_cell_angle_alpha    75.9423
_cell_angle_beta     28.1154
_cell_angle_gamma    75.9423

_symmetry_space_group_name_H-M    "P 1"
_symmetry_int_tables_number       1

loop_
  _symmetry_equiv_pos_as_xyz
  'x, y, z'

loop_
  _atom_site_label
  _atom_site_occupancy
  _atom_site_fract_x
  _atom_site_fract_y
  _atom_site_fract_z
  _atom_site_thermal_displace_type
  _atom_site_B_iso_or_equiv
  _atom_site_type_symbol
  K1       1.0000 0.61811  0.88189  0.11811  Biso   1.000  K
  K2       1.0000 0.88189  0.61811  0.38189  Biso   1.000  K
  K3       1.0000 0.50000  0.50000  0.00000  Biso   1.000  K
  K4       1.0000 0.00000  0.00000  0.50000  Biso   1.000  K
  Pb1      1.0000 0.31294  0.15249  0.84751  Biso   1.000  Pb
  Pb2      1.0000 0.79923  0.66620  0.33380  Biso   1.000  Pb
  Pb3      1.0000 0.30608  0.65934  0.84066  Biso   1.000  Pb
  Pb4      1.0000 0.80608  0.15934  0.34066  Biso   1.000  Pb
  Pb5      1.0000 0.15934  0.80608  0.69392  Biso   1.000  Pb
  Pb6      1.0000 0.65934  0.30608  0.19392  Biso   1.000  Pb
  Pb7      1.0000 0.15249  0.31294  0.68706  Biso   1.000  Pb
  Pb8      1.0000 0.66620  0.79923  0.20077  Biso   1.000  Pb
  Nb1      1.0000 0.98499  0.98499  0.01501  Biso   1.000  Nb
  Nb2      1.0000 0.48141  0.48141  0.51859  Biso   1.000  Nb
  Nb3      1.0000 0.98499  0.48141  0.01501  Biso   1.000  Nb
  Nb4      1.0000 0.48141  0.98499  0.51859  Biso   1.000  Nb
  Ta1      1.0000 0.15054  0.86338  0.13662  Biso   1.000  Ta
  Ta2      1.0000 0.66106  0.37390  0.62610  Biso   1.000  Ta
  Ta3      1.0000 0.15054  0.37390  0.13662  Biso   1.000  Ta
  Ta4      1.0000 0.66106  0.86338  0.62610  Biso   1.000  Ta
  Ta5      1.0000 0.86338  0.15054  0.84946  Biso   1.000  Ta
  Ta6      1.0000 0.37390  0.66106  0.33894  Biso   1.000  Ta
  Ta7      1.0000 0.86338  0.66106  0.84946  Biso   1.000  Ta
  Ta8      1.0000 0.37390  0.15054  0.33894  Biso   1.000  Ta
  O1       1.0000 0.04111  0.26979  0.95889  Biso   1.000  O
  O2       1.0000 0.54258  0.76979  0.45742  Biso   1.000  O
  O3       1.0000 0.04111  0.76979  0.95889  Biso   1.000  O
  O4       1.0000 0.54258  0.26979  0.45742  Biso   1.000  O
  O5       1.0000 0.76979  0.04111  0.23021  Biso   1.000  O
  O6       1.0000 0.26979  0.54258  0.73021  Biso   1.000  O
  O7       1.0000 0.76979  0.54258  0.23021  Biso   1.000  O
  O8       1.0000 0.26979  0.04111  0.73021  Biso   1.000  O
  O9       1.0000 0.09420  0.96396  0.03604  Biso   1.000  O
  O10      1.0000 0.58220  0.45196  0.54804  Biso   1.000  O
  O11      1.0000 0.09420  0.45196  0.03604  Biso   1.000  O
  O12      1.0000 0.58220  0.96396  0.54804  Biso   1.000  O
  O13      1.0000 0.96396  0.09420  0.90580  Biso   1.000  O
  O14      1.0000 0.45196  0.58220  0.41780  Biso   1.000  O
  O15      1.0000 0.96396  0.58220  0.90580  Biso   1.000  O
  O16      1.0000 0.45196  0.09420  0.41780  Biso   1.000  O
  O17      1.0000 0.15487  0.11605  0.13250  Biso   1.000  O
  O18      1.0000 0.63260  0.64105  0.60476  Biso   1.000  O
  O19      1.0000 0.12986  0.64105  0.10749  Biso   1.000  O
  O20      1.0000 0.65760  0.11605  0.62976  Biso   1.000  O
  O21      1.0000 0.89251  0.87841  0.87014  Biso   1.000  O
  O22      1.0000 0.37024  0.40341  0.34240  Biso   1.000  O
  O23      1.0000 0.86750  0.40341  0.84513  Biso   1.000  O
  O24      1.0000 0.39524  0.87841  0.36740  Biso   1.000  O
  O25      1.0000 0.64105  0.12986  0.12159  Biso   1.000  O
  O26      1.0000 0.11605  0.65760  0.59659  Biso   1.000  O
  O27      1.0000 0.64105  0.63260  0.12159  Biso   1.000  O
  O28      1.0000 0.11605  0.15487  0.59659  Biso   1.000  O
  O29      1.0000 0.87841  0.89251  0.35895  Biso   1.000  O
  O30      1.0000 0.40341  0.37024  0.88395  Biso   1.000  O
  O31      1.0000 0.87841  0.39524  0.35895  Biso   1.000  O
  O32      1.0000 0.40341  0.86750  0.88395  Biso   1.000  O
  O33      1.0000 0.18648  0.78274  0.21726  Biso   1.000  O
  O34      1.0000 0.73206  0.32832  0.67168  Biso   1.000  O
  O35      1.0000 0.18648  0.32832  0.21726  Biso   1.000  O
  O36      1.0000 0.73206  0.78274  0.67168  Biso   1.000  O
  O37      1.0000 0.78274  0.18648  0.81352  Biso   1.000  O
  O38      1.0000 0.32832  0.73206  0.26794  Biso   1.000  O
  O39      1.0000 0.78274  0.73206  0.81352  Biso   1.000  O
  O40      1.0000 0.32832  0.18648  0.26794  Biso   1.000  O
