data_image0
_cell_length_a       3.9264
_cell_length_b       15.6806
_cell_length_c       15.6806
_cell_angle_alpha    150.998
_cell_angle_beta     90
_cell_angle_gamma    90

_symmetry_space_group_name_H-M    "P 1"
_symmetry_int_tables_number       1

loop_
  _symmetry_equiv_pos_as_xyz
  'x, y, z'

loop_
  _atom_site_label
  _atom_site_occupancy
  _atom_site_fract_x
  _atom_site_fract_y
  _atom_site_fract_z
  _atom_site_thermal_displace_type
  _atom_site_B_iso_or_equiv
  _atom_site_type_symbol
  K1       1.0000 0.00000  0.00000  0.00000  Biso   1.000  K
  K2       1.0000 0.00000  0.50000  0.50000  Biso   1.000  K
  Pb1      1.0000 0.00000  0.19971  0.83486  Biso   1.000  Pb
  Pb2      1.0000 0.00000  0.68812  0.34645  Biso   1.000  Pb
  Pb3      1.0000 0.00000  0.34645  0.68812  Biso   1.000  Pb
  Pb4      1.0000 0.00000  0.83486  0.19971  Biso   1.000  Pb
  Nb1      1.0000 0.50000  0.51680  0.01680  Biso   1.000  Nb
  Nb2      1.0000 0.50000  0.01680  0.51680  Biso   1.000  Nb
  Ta1      1.0000 0.50000  0.34308  0.13024  Biso   1.000  Ta
  Ta2      1.0000 0.50000  0.84533  0.63249  Biso   1.000  Ta
  Ta3      1.0000 0.50000  0.63249  0.84533  Biso   1.000  Ta
  Ta4      1.0000 0.50000  0.13024  0.34308  Biso   1.000  Ta
  O1       1.0000 0.00000  0.45815  0.95815  Biso   1.000  O
  O2       1.0000 0.00000  0.95815  0.45815  Biso   1.000  O
  O3       1.0000 0.50000  0.77325  0.18717  Biso   1.000  O
  O4       1.0000 0.50000  0.18717  0.77325  Biso   1.000  O
  O5       1.0000 0.50000  0.44539  0.07563  Biso   1.000  O
  O6       1.0000 0.50000  0.87821  0.50845  Biso   1.000  O
  O7       1.0000 0.50000  0.50845  0.87821  Biso   1.000  O
  O8       1.0000 0.50000  0.07563  0.44539  Biso   1.000  O
  O9       1.0000 0.00000  0.35216  0.11452  Biso   1.000  O
  O10      1.0000 0.00000  0.86037  0.62273  Biso   1.000  O
  O11      1.0000 0.00000  0.62273  0.86037  Biso   1.000  O
  O12      1.0000 0.00000  0.11452  0.35216  Biso   1.000  O
  O13      1.0000 0.50000  0.85290  0.12765  Biso   1.000  O
  O14      1.0000 0.50000  0.39001  0.59054  Biso   1.000  O
  O15      1.0000 0.50000  0.59054  0.39001  Biso   1.000  O
  O16      1.0000 0.50000  0.12765  0.85290  Biso   1.000  O
  O17      1.0000 0.50000  0.28374  0.18748  Biso   1.000  O
  O18      1.0000 0.50000  0.79773  0.70147  Biso   1.000  O
  O19      1.0000 0.50000  0.70147  0.79773  Biso   1.000  O
  O20      1.0000 0.50000  0.18748  0.28374  Biso   1.000  O
