data_image0
_cell_length_a       15.6806
_cell_length_b       15.6806
_cell_length_c       15.6806
_cell_angle_alpha    29.0021
_cell_angle_beta     159.603
_cell_angle_gamma    159.603

_symmetry_space_group_name_H-M    "P 1"
_symmetry_int_tables_number       1

loop_
  _symmetry_equiv_pos_as_xyz
  'x, y, z'

loop_
  _atom_site_label
  _atom_site_occupancy
  _atom_site_fract_x
  _atom_site_fract_y
  _atom_site_fract_z
  _atom_site_thermal_displace_type
  _atom_site_B_iso_or_equiv
  _atom_site_type_symbol
  K1       1.0000 0.75000  0.75000  0.00000  Biso   1.000  K
  K2       1.0000 0.75000  0.25000  0.50000  Biso   1.000  K
  Pb1      1.0000 0.73958  0.60794  0.77838  Biso   1.000  Pb
  Pb2      1.0000 0.82956  0.10794  0.36836  Biso   1.000  Pb
  Pb3      1.0000 0.82956  0.96120  0.22162  Biso   1.000  Pb
  Pb4      1.0000 0.73958  0.46120  0.63164  Biso   1.000  Pb
  Nb1      1.0000 0.27937  0.03360  0.74577  Biso   1.000  Nb
  Nb2      1.0000 0.28783  0.53360  0.25423  Biso   1.000  Nb
  Ta1      1.0000 0.23806  0.11914  0.90608  Biso   1.000  Ta
  Ta2      1.0000 0.21307  0.61914  0.38108  Biso   1.000  Ta
  Ta3      1.0000 0.23806  0.83198  0.61892  Biso   1.000  Ta
  Ta4      1.0000 0.21307  0.33198  0.09392  Biso   1.000  Ta
  O1       1.0000 0.16631  0.68837  0.97794  Biso   1.000  O
  O2       1.0000 0.16631  0.18837  0.47794  Biso   1.000  O
  O3       1.0000 0.71043  0.18837  0.02206  Biso   1.000  O
  O4       1.0000 0.71043  0.68837  0.52206  Biso   1.000  O
  O5       1.0000 0.16495  0.01896  0.77624  Biso   1.000  O
  O6       1.0000 0.24272  0.51896  0.35400  Biso   1.000  O
  O7       1.0000 0.16495  0.88872  0.64600  Biso   1.000  O
  O8       1.0000 0.24272  0.38872  0.22376  Biso   1.000  O
  O9       1.0000 0.22489  0.84452  0.11398  Biso   1.000  O
  O10      1.0000 0.22489  0.37328  0.64273  Biso   1.000  O
  O11      1.0000 0.22489  0.08216  0.35162  Biso   1.000  O
  O12      1.0000 0.22489  0.61092  0.88037  Biso   1.000  O
  O13      1.0000 0.73054  0.11092  0.88602  Biso   1.000  O
  O14      1.0000 0.73054  0.58216  0.35727  Biso   1.000  O
  O15      1.0000 0.73054  0.34452  0.11963  Biso   1.000  O
  O16      1.0000 0.73054  0.87328  0.64838  Biso   1.000  O
  O17      1.0000 0.25690  0.18707  0.97357  Biso   1.000  O
  O18      1.0000 0.21351  0.68707  0.43017  Biso   1.000  O
  O19      1.0000 0.25690  0.78333  0.56983  Biso   1.000  O
  O20      1.0000 0.21351  0.28333  0.02643  Biso   1.000  O
