data_image0
_cell_length_a       5.55277
_cell_length_b       15.1811
_cell_length_c       7.8528
_cell_angle_alpha    90
_cell_angle_beta     135
_cell_angle_gamma    90

_symmetry_space_group_name_H-M    "P 1"
_symmetry_int_tables_number       1

loop_
  _symmetry_equiv_pos_as_xyz
  'x, y, z'

loop_
  _atom_site_label
  _atom_site_occupancy
  _atom_site_fract_x
  _atom_site_fract_y
  _atom_site_fract_z
  _atom_site_thermal_displace_type
  _atom_site_B_iso_or_equiv
  _atom_site_type_symbol
  K1       1.0000 0.50000  0.50000  0.50000  Biso   1.000  K
  K2       1.0000 0.50000  0.50000  1.00000  Biso   1.000  K
  Pb1      1.0000 0.53127  0.14674  0.51399  Biso   1.000  Pb
  Pb2      1.0000 0.46873  0.14674  0.95144  Biso   1.000  Pb
  Pb3      1.0000 0.53127  0.85326  0.01399  Biso   1.000  Pb
  Pb4      1.0000 0.46873  0.85326  0.45144  Biso   1.000  Pb
  Nb1      1.0000 0.00000  0.00000  0.98320  Biso   1.000  Nb
  Nb2      1.0000 0.00000  0.00000  0.48320  Biso   1.000  Nb
  Ta1      1.0000 0.00702  0.28716  0.01924  Biso   1.000  Ta
  Ta2      1.0000 0.99298  0.28716  0.50520  Biso   1.000  Ta
  Ta3      1.0000 0.99298  0.71284  0.00520  Biso   1.000  Ta
  Ta4      1.0000 0.00702  0.71284  0.51924  Biso   1.000  Ta
  O1       1.0000 0.50000  0.04404  0.29185  Biso   1.000  O
  O2       1.0000 0.50000  0.95596  0.79185  Biso   1.000  O
  O3       1.0000 1.00000  0.95596  0.76979  Biso   1.000  O
  O4       1.0000 0.00000  0.04404  0.26979  Biso   1.000  O
  O5       1.0000 0.95793  0.13024  0.98101  Biso   1.000  O
  O6       1.0000 0.04207  0.13024  0.56515  Biso   1.000  O
  O7       1.0000 0.04207  0.86976  0.06515  Biso   1.000  O
  O8       1.0000 0.95793  0.86976  0.48101  Biso   1.000  O
  O9       1.0000 0.50000  0.23763  0.26255  Biso   1.000  O
  O10      1.0000 0.50000  0.28709  0.76255  Biso   1.000  O
  O11      1.0000 0.50000  0.76237  0.76255  Biso   1.000  O
  O12      1.0000 0.50000  0.71291  0.26255  Biso   1.000  O
  O13      1.0000 0.00000  0.76237  0.75973  Biso   1.000  O
  O14      1.0000 0.00000  0.71291  0.25973  Biso   1.000  O
  O15      1.0000 0.00000  0.28709  0.75973  Biso   1.000  O
  O16      1.0000 0.00000  0.23763  0.25973  Biso   1.000  O
  O17      1.0000 0.02490  0.40374  0.03230  Biso   1.000  O
  O18      1.0000 0.97510  0.40374  0.48250  Biso   1.000  O
  O19      1.0000 0.97510  0.59626  0.98250  Biso   1.000  O
  O20      1.0000 0.02490  0.59626  0.53230  Biso   1.000  O
