data_image0
_cell_length_a       3.9264
_cell_length_b       30.3622
_cell_length_c       3.9264
_cell_angle_alpha    90
_cell_angle_beta     90
_cell_angle_gamma    90

_symmetry_space_group_name_H-M    "P 1"
_symmetry_int_tables_number       1

loop_
  _symmetry_equiv_pos_as_xyz
  'x, y, z'

loop_
  _atom_site_label
  _atom_site_occupancy
  _atom_site_fract_x
  _atom_site_fract_y
  _atom_site_fract_z
  _atom_site_thermal_displace_type
  _atom_site_B_iso_or_equiv
  _atom_site_type_symbol
  K1       1.0000 0.40107  0.50000  0.40107  Biso   1.000  K
  K2       1.0000 0.59893  0.00000  0.59893  Biso   1.000  K
  Pb1      1.0000 0.53646  0.67663  0.50189  Biso   1.000  Pb
  Pb2      1.0000 0.53268  0.17663  0.49811  Biso   1.000  Pb
  Pb3      1.0000 0.53268  0.82337  0.49811  Biso   1.000  Pb
  Pb4      1.0000 0.53646  0.32337  0.50189  Biso   1.000  Pb
  Nb1      1.0000 0.03360  0.75000  0.00000  Biso   1.000  Nb
  Nb2      1.0000 0.03360  0.25000  0.00000  Biso   1.000  Nb
  Ta1      1.0000 0.98109  0.60642  0.00553  Biso   1.000  Ta
  Ta2      1.0000 0.97003  0.10642  0.99447  Biso   1.000  Ta
  Ta3      1.0000 0.97003  0.89358  0.99447  Biso   1.000  Ta
  Ta4      1.0000 0.98109  0.39358  0.00553  Biso   1.000  Ta
  O1       1.0000 0.91631  0.75000  0.50000  Biso   1.000  O
  O2       1.0000 0.91631  0.25000  0.50000  Biso   1.000  O
  O3       1.0000 0.46043  0.75000  0.00000  Biso   1.000  O
  O4       1.0000 0.46043  0.25000  0.00000  Biso   1.000  O
  O5       1.0000 0.95508  0.68488  0.00124  Biso   1.000  O
  O6       1.0000 0.95259  0.18488  0.99876  Biso   1.000  O
  O7       1.0000 0.95259  0.81512  0.99876  Biso   1.000  O
  O8       1.0000 0.95508  0.31512  0.00124  Biso   1.000  O
  O9       1.0000 0.97685  0.61882  0.50193  Biso   1.000  O
  O10      1.0000 0.97294  0.11882  0.49807  Biso   1.000  O
  O11      1.0000 0.97294  0.88118  0.49807  Biso   1.000  O
  O12      1.0000 0.97685  0.38118  0.50193  Biso   1.000  O
  O13      1.0000 0.47861  0.88118  0.99805  Biso   1.000  O
  O14      1.0000 0.48248  0.38118  0.00195  Biso   1.000  O
  O15      1.0000 0.48248  0.61882  0.00195  Biso   1.000  O
  O16      1.0000 0.47861  0.11882  0.99805  Biso   1.000  O
  O17      1.0000 0.99322  0.54813  0.00802  Biso   1.000  O
  O18      1.0000 0.97719  0.04813  0.99198  Biso   1.000  O
  O19      1.0000 0.97719  0.95187  0.99198  Biso   1.000  O
  O20      1.0000 0.99322  0.45187  0.00802  Biso   1.000  O
