data_image0
_cell_length_a       3.9264
_cell_length_b       15.1811
_cell_length_c       7.8528
_cell_angle_alpha    90
_cell_angle_beta     90
_cell_angle_gamma    90

_symmetry_space_group_name_H-M    "P 1"
_symmetry_int_tables_number       1

loop_
  _symmetry_equiv_pos_as_xyz
  'x, y, z'

loop_
  _atom_site_label
  _atom_site_occupancy
  _atom_site_fract_x
  _atom_site_fract_y
  _atom_site_fract_z
  _atom_site_thermal_displace_type
  _atom_site_B_iso_or_equiv
  _atom_site_type_symbol
  K1       1.0000 0.50000  0.57818  0.75000  Biso   1.000  K
  K2       1.0000 0.50000  0.42182  0.25000  Biso   1.000  K
  Pb1      1.0000 0.50000  0.15287  0.76729  Biso   1.000  Pb
  Pb2      1.0000 0.50000  0.14061  0.26729  Biso   1.000  Pb
  Pb3      1.0000 0.50000  0.85939  0.76729  Biso   1.000  Pb
  Pb4      1.0000 0.50000  0.84713  0.26729  Biso   1.000  Pb
  Nb1      1.0000 0.00000  0.00000  0.01680  Biso   1.000  Nb
  Nb2      1.0000 0.00000  0.00000  0.51680  Biso   1.000  Nb
  Ta1      1.0000 0.00000  0.28716  0.99267  Biso   1.000  Ta
  Ta2      1.0000 0.00000  0.28716  0.48290  Biso   1.000  Ta
  Ta3      1.0000 0.00000  0.71284  0.98290  Biso   1.000  Ta
  Ta4      1.0000 0.00000  0.71284  0.49267  Biso   1.000  Ta
  O1       1.0000 0.50000  0.00000  0.95815  Biso   1.000  O
  O2       1.0000 0.50000  0.00000  0.45815  Biso   1.000  O
  O3       1.0000 0.00000  0.04297  0.23021  Biso   1.000  O
  O4       1.0000 0.00000  0.95703  0.73021  Biso   1.000  O
  O5       1.0000 0.00000  0.13024  0.95747  Biso   1.000  O
  O6       1.0000 0.00000  0.13024  0.49636  Biso   1.000  O
  O7       1.0000 0.00000  0.86976  0.99636  Biso   1.000  O
  O8       1.0000 0.00000  0.86976  0.45747  Biso   1.000  O
  O9       1.0000 0.50000  0.26236  0.98994  Biso   1.000  O
  O10      1.0000 0.50000  0.26236  0.48495  Biso   1.000  O
  O11      1.0000 0.50000  0.73764  0.98495  Biso   1.000  O
  O12      1.0000 0.50000  0.73764  0.48994  Biso   1.000  O
  O13      1.0000 0.00000  0.69746  0.24027  Biso   1.000  O
  O14      1.0000 0.00000  0.77782  0.74027  Biso   1.000  O
  O15      1.0000 0.00000  0.22218  0.24027  Biso   1.000  O
  O16      1.0000 0.00000  0.30254  0.74027  Biso   1.000  O
  O17      1.0000 0.00000  0.40374  0.01874  Biso   1.000  O
  O18      1.0000 0.00000  0.40374  0.46647  Biso   1.000  O
  O19      1.0000 0.00000  0.59626  0.96647  Biso   1.000  O
  O20      1.0000 0.00000  0.59626  0.51874  Biso   1.000  O
