data_image0
_cell_length_a       5.55277
_cell_length_b       30.3622
_cell_length_c       5.55277
_cell_angle_alpha    90
_cell_angle_beta     90
_cell_angle_gamma    90

_symmetry_space_group_name_H-M    "P 1"
_symmetry_int_tables_number       1

loop_
  _symmetry_equiv_pos_as_xyz
  'x, y, z'

loop_
  _atom_site_label
  _atom_site_occupancy
  _atom_site_fract_x
  _atom_site_fract_y
  _atom_site_fract_z
  _atom_site_thermal_displace_type
  _atom_site_B_iso_or_equiv
  _atom_site_type_symbol
  K1       1.0000 0.50000  0.00000  0.00000  Biso   1.000  K
  K2       1.0000 0.50000  0.50000  0.00000  Biso   1.000  K
  K3       1.0000 0.00000  0.00000  0.50000  Biso   1.000  K
  K4       1.0000 0.00000  0.50000  0.50000  Biso   1.000  K
  Pb1      1.0000 0.49034  0.82337  0.00000  Biso   1.000  Pb
  Pb2      1.0000 0.50966  0.32337  0.00000  Biso   1.000  Pb
  Pb3      1.0000 0.99034  0.82337  0.50000  Biso   1.000  Pb
  Pb4      1.0000 0.00966  0.32337  0.50000  Biso   1.000  Pb
  Pb5      1.0000 0.99034  0.67663  0.50000  Biso   1.000  Pb
  Pb6      1.0000 0.00966  0.17663  0.50000  Biso   1.000  Pb
  Pb7      1.0000 0.49034  0.67663  0.00000  Biso   1.000  Pb
  Pb8      1.0000 0.50966  0.17663  0.00000  Biso   1.000  Pb
  Nb1      1.0000 1.00000  0.75000  0.00000  Biso   1.000  Nb
  Nb2      1.0000 0.00000  0.25000  0.00000  Biso   1.000  Nb
  Nb3      1.0000 0.50000  0.75000  0.50000  Biso   1.000  Nb
  Nb4      1.0000 0.50000  0.25000  0.50000  Biso   1.000  Nb
  Ta1      1.0000 0.95988  0.89358  0.00000  Biso   1.000  Ta
  Ta2      1.0000 0.04012  0.39358  0.00000  Biso   1.000  Ta
  Ta3      1.0000 0.45988  0.89358  0.50000  Biso   1.000  Ta
  Ta4      1.0000 0.54012  0.39358  0.50000  Biso   1.000  Ta
  Ta5      1.0000 0.95988  0.60642  0.00000  Biso   1.000  Ta
  Ta6      1.0000 0.04012  0.10642  0.00000  Biso   1.000  Ta
  Ta7      1.0000 0.45988  0.60642  0.50000  Biso   1.000  Ta
  Ta8      1.0000 0.54012  0.10642  0.50000  Biso   1.000  Ta
  O1       1.0000 0.66282  0.75000  0.18883  Biso   1.000  O
  O2       1.0000 0.73719  0.25000  0.21118  Biso   1.000  O
  O3       1.0000 0.26281  0.75000  0.78882  Biso   1.000  O
  O4       1.0000 0.33718  0.25000  0.81117  Biso   1.000  O
  O5       1.0000 0.16282  0.75000  0.31117  Biso   1.000  O
  O6       1.0000 0.23719  0.25000  0.28882  Biso   1.000  O
  O7       1.0000 0.76281  0.75000  0.71118  Biso   1.000  O
  O8       1.0000 0.83718  0.25000  0.68883  Biso   1.000  O
  O9       1.0000 0.96991  0.81512  0.00000  Biso   1.000  O
  O10      1.0000 0.03009  0.31512  0.00000  Biso   1.000  O
  O11      1.0000 0.46991  0.81512  0.50000  Biso   1.000  O
  O12      1.0000 0.53009  0.31512  0.50000  Biso   1.000  O
  O13      1.0000 0.96991  0.68488  0.00000  Biso   1.000  O
  O14      1.0000 0.03009  0.18488  0.00000  Biso   1.000  O
  O15      1.0000 0.46991  0.68488  0.50000  Biso   1.000  O
  O16      1.0000 0.53009  0.18488  0.50000  Biso   1.000  O
  O17      1.0000 0.73325  0.88118  0.24937  Biso   1.000  O
  O18      1.0000 0.76814  0.38118  0.25201  Biso   1.000  O
  O19      1.0000 0.23186  0.88118  0.74799  Biso   1.000  O
  O20      1.0000 0.26675  0.38118  0.75063  Biso   1.000  O
  O21      1.0000 0.23186  0.61882  0.74799  Biso   1.000  O
  O22      1.0000 0.26675  0.11882  0.75063  Biso   1.000  O
  O23      1.0000 0.73325  0.61882  0.24937  Biso   1.000  O
  O24      1.0000 0.76814  0.11882  0.25201  Biso   1.000  O
  O25      1.0000 0.23325  0.61882  0.25063  Biso   1.000  O
  O26      1.0000 0.26814  0.11882  0.24799  Biso   1.000  O
  O27      1.0000 0.73186  0.61882  0.75201  Biso   1.000  O
  O28      1.0000 0.76675  0.11882  0.74937  Biso   1.000  O
  O29      1.0000 0.23325  0.88118  0.25063  Biso   1.000  O
  O30      1.0000 0.26814  0.38118  0.24799  Biso   1.000  O
  O31      1.0000 0.73186  0.88118  0.75201  Biso   1.000  O
  O32      1.0000 0.76675  0.38118  0.74937  Biso   1.000  O
  O33      1.0000 0.98351  0.95187  0.00000  Biso   1.000  O
  O34      1.0000 0.01649  0.45187  0.00000  Biso   1.000  O
  O35      1.0000 0.48351  0.95187  0.50000  Biso   1.000  O
  O36      1.0000 0.51649  0.45187  0.50000  Biso   1.000  O
  O37      1.0000 0.98351  0.54813  0.00000  Biso   1.000  O
  O38      1.0000 0.01649  0.04813  0.00000  Biso   1.000  O
  O39      1.0000 0.48351  0.54813  0.50000  Biso   1.000  O
  O40      1.0000 0.51649  0.04813  0.50000  Biso   1.000  O
