data_image0
_cell_length_a       16.1647
_cell_length_b       16.1647
_cell_length_c       16.1647
_cell_angle_alpha    151.885
_cell_angle_beta     151.885
_cell_angle_gamma    40.1819

_symmetry_space_group_name_H-M    "P 1"
_symmetry_int_tables_number       1

loop_
  _symmetry_equiv_pos_as_xyz
  'x, y, z'

loop_
  _atom_site_label
  _atom_site_occupancy
  _atom_site_fract_x
  _atom_site_fract_y
  _atom_site_fract_z
  _atom_site_thermal_displace_type
  _atom_site_B_iso_or_equiv
  _atom_site_type_symbol
  K1       1.0000 0.50000  0.50000  0.00000  Biso   1.000  K
  K2       1.0000 0.00000  0.00000  0.00000  Biso   1.000  K
  K3       1.0000 0.50000  0.00000  0.50000  Biso   1.000  K
  K4       1.0000 0.00000  0.50000  0.50000  Biso   1.000  K
  Pb1      1.0000 0.68243  0.68243  0.00000  Biso   1.000  Pb
  Pb2      1.0000 0.17083  0.17083  0.00000  Biso   1.000  Pb
  Pb3      1.0000 0.68243  0.18243  0.50000  Biso   1.000  Pb
  Pb4      1.0000 0.17083  0.67083  0.50000  Biso   1.000  Pb
  Pb5      1.0000 0.82917  0.32917  0.50000  Biso   1.000  Pb
  Pb6      1.0000 0.31757  0.81757  0.50000  Biso   1.000  Pb
  Pb7      1.0000 0.82917  0.82917  0.00000  Biso   1.000  Pb
  Pb8      1.0000 0.31757  0.31757  0.00000  Biso   1.000  Pb
  Nb1      1.0000 0.00000  0.00000  0.50000  Biso   1.000  Nb
  Nb2      1.0000 0.50000  0.50000  0.50000  Biso   1.000  Nb
  Nb3      1.0000 0.00000  0.50000  0.00000  Biso   1.000  Nb
  Nb4      1.0000 0.50000  0.00000  0.00000  Biso   1.000  Nb
  Ta1      1.0000 0.85529  0.85642  0.49887  Biso   1.000  Ta
  Ta2      1.0000 0.35755  0.35642  0.50113  Biso   1.000  Ta
  Ta3      1.0000 0.85529  0.35642  0.99887  Biso   1.000  Ta
  Ta4      1.0000 0.35755  0.85642  0.00113  Biso   1.000  Ta
  Ta5      1.0000 0.14471  0.14358  0.50113  Biso   1.000  Ta
  Ta6      1.0000 0.64245  0.64358  0.49887  Biso   1.000  Ta
  Ta7      1.0000 0.14471  0.64358  0.00113  Biso   1.000  Ta
  Ta8      1.0000 0.64245  0.14358  0.99887  Biso   1.000  Ta
  O1       1.0000 0.95000  0.75000  0.20000  Biso   1.000  O
  O2       1.0000 0.45000  0.25000  0.20000  Biso   1.000  O
  O3       1.0000 0.05000  0.25000  0.80000  Biso   1.000  O
  O4       1.0000 0.55000  0.75000  0.80000  Biso   1.000  O
  O5       1.0000 0.29304  0.99304  0.70000  Biso   1.000  O
  O6       1.0000 0.70696  0.40696  0.70000  Biso   1.000  O
  O7       1.0000 0.29304  0.59304  0.30000  Biso   1.000  O
  O8       1.0000 0.70696  0.00696  0.30000  Biso   1.000  O
  O9       1.0000 0.96847  0.93488  0.53359  Biso   1.000  O
  O10      1.0000 0.40129  0.43488  0.46641  Biso   1.000  O
  O11      1.0000 0.96847  0.43488  0.03359  Biso   1.000  O
  O12      1.0000 0.40129  0.93488  0.96641  Biso   1.000  O
  O13      1.0000 0.03153  0.06512  0.46641  Biso   1.000  O
  O14      1.0000 0.59871  0.56512  0.53359  Biso   1.000  O
  O15      1.0000 0.03153  0.56512  0.96641  Biso   1.000  O
  O16      1.0000 0.59871  0.06512  0.03359  Biso   1.000  O
  O17      1.0000 0.86540  0.61882  0.24658  Biso   1.000  O
  O18      1.0000 0.37362  0.11882  0.25480  Biso   1.000  O
  O19      1.0000 0.86402  0.11882  0.74520  Biso   1.000  O
  O20      1.0000 0.37224  0.61882  0.75342  Biso   1.000  O
  O21      1.0000 0.13460  0.38118  0.75342  Biso   1.000  O
  O22      1.0000 0.62638  0.88118  0.74520  Biso   1.000  O
  O23      1.0000 0.13598  0.88118  0.25480  Biso   1.000  O
  O24      1.0000 0.62776  0.38118  0.24658  Biso   1.000  O
  O25      1.0000 0.36262  0.11332  0.75069  Biso   1.000  O
  O26      1.0000 0.89974  0.65043  0.75069  Biso   1.000  O
  O27      1.0000 0.36262  0.61193  0.24931  Biso   1.000  O
  O28      1.0000 0.89974  0.14904  0.24931  Biso   1.000  O
  O29      1.0000 0.10026  0.85096  0.75069  Biso   1.000  O
  O30      1.0000 0.63738  0.38807  0.75069  Biso   1.000  O
  O31      1.0000 0.10026  0.34957  0.24931  Biso   1.000  O
  O32      1.0000 0.63738  0.88668  0.24931  Biso   1.000  O
  O33      1.0000 0.79113  0.79813  0.49300  Biso   1.000  O
  O34      1.0000 0.30513  0.29813  0.50700  Biso   1.000  O
  O35      1.0000 0.79113  0.29813  0.99300  Biso   1.000  O
  O36      1.0000 0.30513  0.79813  0.00700  Biso   1.000  O
  O37      1.0000 0.20887  0.20187  0.50700  Biso   1.000  O
  O38      1.0000 0.69487  0.70187  0.49300  Biso   1.000  O
  O39      1.0000 0.20887  0.70187  0.00700  Biso   1.000  O
  O40      1.0000 0.69487  0.20187  0.99300  Biso   1.000  O
