data_image0
_cell_length_a       16.1647
_cell_length_b       16.1647
_cell_length_c       7.8528
_cell_angle_alpha    104.058
_cell_angle_beta     104.058
_cell_angle_gamma    28.1154

_symmetry_space_group_name_H-M    "P 1"
_symmetry_int_tables_number       1

loop_
  _symmetry_equiv_pos_as_xyz
  'x, y, z'

loop_
  _atom_site_label
  _atom_site_occupancy
  _atom_site_fract_x
  _atom_site_fract_y
  _atom_site_fract_z
  _atom_site_thermal_displace_type
  _atom_site_B_iso_or_equiv
  _atom_site_type_symbol
  K1       1.0000 0.00000  0.00000  0.50000  Biso   1.000  K
  K2       1.0000 0.50000  0.50000  0.00000  Biso   1.000  K
  K3       1.0000 0.50000  0.50000  0.50000  Biso   1.000  K
  K4       1.0000 0.00000  0.00000  0.00000  Biso   1.000  K
  Pb1      1.0000 0.18822  0.18822  0.71950  Biso   1.000  Pb
  Pb2      1.0000 0.66504  0.66504  0.19631  Biso   1.000  Pb
  Pb3      1.0000 0.67663  0.67663  0.64536  Biso   1.000  Pb
  Pb4      1.0000 0.17663  0.17663  0.14536  Biso   1.000  Pb
  Pb5      1.0000 0.82337  0.82337  0.85464  Biso   1.000  Pb
  Pb6      1.0000 0.32337  0.32337  0.35464  Biso   1.000  Pb
  Pb7      1.0000 0.33496  0.33496  0.80369  Biso   1.000  Pb
  Pb8      1.0000 0.81178  0.81178  0.28050  Biso   1.000  Pb
  Nb1      1.0000 0.50000  0.00000  0.50000  Biso   1.000  Nb
  Nb2      1.0000 0.00000  0.50000  0.00000  Biso   1.000  Nb
  Nb3      1.0000 0.00000  0.50000  0.50000  Biso   1.000  Nb
  Nb4      1.0000 0.50000  0.00000  0.00000  Biso   1.000  Nb
  Ta1      1.0000 0.34827  0.86457  0.35755  Biso   1.000  Ta
  Ta2      1.0000 0.85053  0.36231  0.85529  Biso   1.000  Ta
  Ta3      1.0000 0.86457  0.34827  0.35755  Biso   1.000  Ta
  Ta4      1.0000 0.36231  0.85053  0.85529  Biso   1.000  Ta
  Ta5      1.0000 0.65173  0.13543  0.64245  Biso   1.000  Ta
  Ta6      1.0000 0.14947  0.63769  0.14471  Biso   1.000  Ta
  Ta7      1.0000 0.13543  0.65173  0.64245  Biso   1.000  Ta
  Ta8      1.0000 0.63769  0.14947  0.14471  Biso   1.000  Ta
  O1       1.0000 0.16292  0.16292  0.41292  Biso   1.000  O
  O2       1.0000 0.74900  0.74900  0.99900  Biso   1.000  O
  O3       1.0000 0.83708  0.83708  0.58708  Biso   1.000  O
  O4       1.0000 0.25100  0.25100  0.00100  Biso   1.000  O
  O5       1.0000 0.54304  0.04304  0.29304  Biso   1.000  O
  O6       1.0000 0.95696  0.45696  0.70696  Biso   1.000  O
  O7       1.0000 0.04304  0.54304  0.29304  Biso   1.000  O
  O8       1.0000 0.45696  0.95696  0.70696  Biso   1.000  O
  O9       1.0000 0.51054  0.85922  0.40129  Biso   1.000  O
  O10      1.0000 0.94336  0.42640  0.96847  Biso   1.000  O
  O11      1.0000 0.85922  0.51054  0.40129  Biso   1.000  O
  O12      1.0000 0.42640  0.94336  0.96847  Biso   1.000  O
  O13      1.0000 0.48946  0.14078  0.59871  Biso   1.000  O
  O14      1.0000 0.05664  0.57360  0.03153  Biso   1.000  O
  O15      1.0000 0.14078  0.48946  0.59871  Biso   1.000  O
  O16      1.0000 0.57360  0.05664  0.03153  Biso   1.000  O
  O17      1.0000 0.16210  0.16210  0.41621  Biso   1.000  O
  O18      1.0000 0.62499  0.62499  0.87088  Biso   1.000  O
  O19      1.0000 0.57554  0.57554  0.32965  Biso   1.000  O
  O20      1.0000 0.11265  0.11265  0.85854  Biso   1.000  O
  O21      1.0000 0.83790  0.83790  0.58379  Biso   1.000  O
  O22      1.0000 0.37501  0.37501  0.12912  Biso   1.000  O
  O23      1.0000 0.42446  0.42446  0.67035  Biso   1.000  O
  O24      1.0000 0.88735  0.88735  0.14146  Biso   1.000  O
  O25      1.0000 0.61673  0.10852  0.36262  Biso   1.000  O
  O26      1.0000 0.14563  0.65384  0.89974  Biso   1.000  O
  O27      1.0000 0.10852  0.61673  0.36262  Biso   1.000  O
  O28      1.0000 0.65384  0.14563  0.89974  Biso   1.000  O
  O29      1.0000 0.34616  0.85437  0.10026  Biso   1.000  O
  O30      1.0000 0.89148  0.38327  0.63738  Biso   1.000  O
  O31      1.0000 0.85437  0.34616  0.10026  Biso   1.000  O
  O32      1.0000 0.38327  0.89148  0.63738  Biso   1.000  O
  O33      1.0000 0.26623  0.83003  0.30513  Biso   1.000  O
  O34      1.0000 0.78023  0.31603  0.79113  Biso   1.000  O
  O35      1.0000 0.83003  0.26623  0.30513  Biso   1.000  O
  O36      1.0000 0.31603  0.78023  0.79113  Biso   1.000  O
  O37      1.0000 0.73377  0.16997  0.69487  Biso   1.000  O
  O38      1.0000 0.21977  0.68397  0.20887  Biso   1.000  O
  O39      1.0000 0.16997  0.73377  0.69487  Biso   1.000  O
  O40      1.0000 0.68397  0.21977  0.20887  Biso   1.000  O
