data_image0
_cell_length_a       5.55277
_cell_length_b       5.55277
_cell_length_c       30.3622
_cell_angle_alpha    90
_cell_angle_beta     90
_cell_angle_gamma    90

_symmetry_space_group_name_H-M    "P 1"
_symmetry_int_tables_number       1

loop_
  _symmetry_equiv_pos_as_xyz
  'x, y, z'

loop_
  _atom_site_label
  _atom_site_occupancy
  _atom_site_fract_x
  _atom_site_fract_y
  _atom_site_fract_z
  _atom_site_thermal_displace_type
  _atom_site_B_iso_or_equiv
  _atom_site_type_symbol
  K1       1.0000 0.00000  0.40107  0.25000  Biso   1.000  K
  K2       1.0000 0.00000  0.59893  0.75000  Biso   1.000  K
  K3       1.0000 0.50000  0.90107  0.25000  Biso   1.000  K
  K4       1.0000 0.50000  0.09893  0.75000  Biso   1.000  K
  Pb1      1.0000 0.96873  0.50189  0.07337  Biso   1.000  Pb
  Pb2      1.0000 0.96873  0.49811  0.57337  Biso   1.000  Pb
  Pb3      1.0000 0.53127  0.00189  0.07337  Biso   1.000  Pb
  Pb4      1.0000 0.53127  0.99811  0.57337  Biso   1.000  Pb
  Pb5      1.0000 0.46873  0.99811  0.92663  Biso   1.000  Pb
  Pb6      1.0000 0.46873  0.00189  0.42663  Biso   1.000  Pb
  Pb7      1.0000 0.03127  0.49811  0.92663  Biso   1.000  Pb
  Pb8      1.0000 0.03127  0.50189  0.42663  Biso   1.000  Pb
  Nb1      1.0000 0.00000  0.00000  0.00000  Biso   1.000  Nb
  Nb2      1.0000 0.00000  0.00000  0.50000  Biso   1.000  Nb
  Nb3      1.0000 0.50000  0.50000  0.00000  Biso   1.000  Nb
  Nb4      1.0000 0.50000  0.50000  0.50000  Biso   1.000  Nb
  Ta1      1.0000 0.00702  0.00553  0.14358  Biso   1.000  Ta
  Ta2      1.0000 0.00702  0.99447  0.64358  Biso   1.000  Ta
  Ta3      1.0000 0.49298  0.50553  0.14358  Biso   1.000  Ta
  Ta4      1.0000 0.49298  0.49447  0.64358  Biso   1.000  Ta
  Ta5      1.0000 0.99298  0.99447  0.85642  Biso   1.000  Ta
  Ta6      1.0000 0.99298  0.00553  0.35642  Biso   1.000  Ta
  Ta7      1.0000 0.50702  0.49447  0.85642  Biso   1.000  Ta
  Ta8      1.0000 0.50702  0.50553  0.35642  Biso   1.000  Ta
  O1       1.0000 0.25000  0.75000  0.02202  Biso   1.000  O
  O2       1.0000 0.25000  0.75000  0.52202  Biso   1.000  O
  O3       1.0000 0.75000  0.25000  0.97798  Biso   1.000  O
  O4       1.0000 0.75000  0.25000  0.47798  Biso   1.000  O
  O5       1.0000 0.25000  0.25000  0.02202  Biso   1.000  O
  O6       1.0000 0.25000  0.25000  0.52202  Biso   1.000  O
  O7       1.0000 0.75000  0.75000  0.97798  Biso   1.000  O
  O8       1.0000 0.75000  0.75000  0.47798  Biso   1.000  O
  O9       1.0000 0.95793  0.00124  0.06512  Biso   1.000  O
  O10      1.0000 0.95793  0.99876  0.56512  Biso   1.000  O
  O11      1.0000 0.54207  0.50124  0.06512  Biso   1.000  O
  O12      1.0000 0.54207  0.49876  0.56512  Biso   1.000  O
  O13      1.0000 0.04207  0.99876  0.93488  Biso   1.000  O
  O14      1.0000 0.04207  0.00124  0.43488  Biso   1.000  O
  O15      1.0000 0.45793  0.49876  0.93488  Biso   1.000  O
  O16      1.0000 0.45793  0.50124  0.43488  Biso   1.000  O
  O17      1.0000 0.25001  0.75194  0.11882  Biso   1.000  O
  O18      1.0000 0.24999  0.74806  0.61882  Biso   1.000  O
  O19      1.0000 0.75001  0.25194  0.14354  Biso   1.000  O
  O20      1.0000 0.74999  0.24806  0.64354  Biso   1.000  O
  O21      1.0000 0.74999  0.24806  0.88118  Biso   1.000  O
  O22      1.0000 0.75001  0.25194  0.38118  Biso   1.000  O
  O23      1.0000 0.24999  0.74806  0.85646  Biso   1.000  O
  O24      1.0000 0.25001  0.75194  0.35646  Biso   1.000  O
  O25      1.0000 0.25001  0.24806  0.85646  Biso   1.000  O
  O26      1.0000 0.24999  0.25194  0.35646  Biso   1.000  O
  O27      1.0000 0.75001  0.74806  0.88118  Biso   1.000  O
  O28      1.0000 0.74999  0.75194  0.38118  Biso   1.000  O
  O29      1.0000 0.24999  0.25194  0.11882  Biso   1.000  O
  O30      1.0000 0.25001  0.24806  0.61882  Biso   1.000  O
  O31      1.0000 0.74999  0.75194  0.14354  Biso   1.000  O
  O32      1.0000 0.75001  0.74806  0.64354  Biso   1.000  O
  O33      1.0000 0.02490  0.00802  0.20187  Biso   1.000  O
  O34      1.0000 0.02490  0.99198  0.70187  Biso   1.000  O
  O35      1.0000 0.47510  0.50802  0.20187  Biso   1.000  O
  O36      1.0000 0.47510  0.49198  0.70187  Biso   1.000  O
  O37      1.0000 0.97510  0.99198  0.79813  Biso   1.000  O
  O38      1.0000 0.97510  0.00802  0.29813  Biso   1.000  O
  O39      1.0000 0.52490  0.49198  0.79813  Biso   1.000  O
  O40      1.0000 0.52490  0.50802  0.29813  Biso   1.000  O
