data_image0
_cell_length_a       16.1647
_cell_length_b       16.1647
_cell_length_c       16.1647
_cell_angle_alpha    151.885
_cell_angle_beta     151.885
_cell_angle_gamma    40.1819

_symmetry_space_group_name_H-M    "P 1"
_symmetry_int_tables_number       1

loop_
  _symmetry_equiv_pos_as_xyz
  'x, y, z'

loop_
  _atom_site_label
  _atom_site_occupancy
  _atom_site_fract_x
  _atom_site_fract_y
  _atom_site_fract_z
  _atom_site_thermal_displace_type
  _atom_site_B_iso_or_equiv
  _atom_site_type_symbol
  K1       1.0000 0.80906  0.80906  0.50000  Biso   1.000  K
  K2       1.0000 0.19094  0.19094  0.50000  Biso   1.000  K
  K3       1.0000 0.19094  0.69094  1.00000  Biso   1.000  K
  K4       1.0000 0.80906  0.30906  1.00000  Biso   1.000  K
  Pb1      1.0000 0.57680  0.54553  0.46873  Biso   1.000  Pb
  Pb2      1.0000 0.06994  0.03867  0.46873  Biso   1.000  Pb
  Pb3      1.0000 0.06994  0.60121  0.03127  Biso   1.000  Pb
  Pb4      1.0000 0.57680  0.10807  0.03127  Biso   1.000  Pb
  Pb5      1.0000 0.93006  0.39879  0.96873  Biso   1.000  Pb
  Pb6      1.0000 0.42320  0.89193  0.96873  Biso   1.000  Pb
  Pb7      1.0000 0.42320  0.45447  0.53127  Biso   1.000  Pb
  Pb8      1.0000 0.93006  0.96133  0.53127  Biso   1.000  Pb
  Nb1      1.0000 0.74821  0.75000  0.99821  Biso   1.000  Nb
  Nb2      1.0000 0.25179  0.25000  0.00179  Biso   1.000  Nb
  Nb3      1.0000 0.25179  0.75000  0.50179  Biso   1.000  Nb
  Nb4      1.0000 0.74821  0.25000  0.49821  Biso   1.000  Nb
  Ta1      1.0000 0.89182  0.89358  0.99824  Biso   1.000  Ta
  Ta2      1.0000 0.38130  0.39358  0.98772  Biso   1.000  Ta
  Ta3      1.0000 0.39534  0.89358  0.50176  Biso   1.000  Ta
  Ta4      1.0000 0.90586  0.39358  0.51228  Biso   1.000  Ta
  Ta5      1.0000 0.61870  0.60642  0.01228  Biso   1.000  Ta
  Ta6      1.0000 0.10818  0.10642  0.00176  Biso   1.000  Ta
  Ta7      1.0000 0.09414  0.60642  0.48772  Biso   1.000  Ta
  Ta8      1.0000 0.60466  0.10642  0.49824  Biso   1.000  Ta
  O1       1.0000 0.54404  0.79404  0.75000  Biso   1.000  O
  O2       1.0000 0.04404  0.29404  0.75000  Biso   1.000  O
  O3       1.0000 0.95596  0.70596  0.25000  Biso   1.000  O
  O4       1.0000 0.45596  0.20596  0.25000  Biso   1.000  O
  O5       1.0000 0.75074  0.00000  0.25074  Biso   1.000  O
  O6       1.0000 0.24926  0.50000  0.24926  Biso   1.000  O
  O7       1.0000 0.24926  0.00000  0.74926  Biso   1.000  O
  O8       1.0000 0.75074  0.50000  0.75074  Biso   1.000  O
  O9       1.0000 0.85119  0.81512  0.03607  Biso   1.000  O
  O10      1.0000 0.36319  0.31512  0.04807  Biso   1.000  O
  O11      1.0000 0.27905  0.81512  0.46393  Biso   1.000  O
  O12      1.0000 0.76705  0.31512  0.45193  Biso   1.000  O
  O13      1.0000 0.63681  0.68488  0.95193  Biso   1.000  O
  O14      1.0000 0.14881  0.18488  0.96393  Biso   1.000  O
  O15      1.0000 0.23295  0.68488  0.54807  Biso   1.000  O
  O16      1.0000 0.72095  0.18488  0.53607  Biso   1.000  O
  O17      1.0000 0.61896  0.86896  0.75000  Biso   1.000  O
  O18      1.0000 0.09395  0.34395  0.75000  Biso   1.000  O
  O19      1.0000 0.14340  0.89340  0.25000  Biso   1.000  O
  O20      1.0000 0.66841  0.41841  0.25000  Biso   1.000  O
  O21      1.0000 0.90605  0.65605  0.25000  Biso   1.000  O
  O22      1.0000 0.38104  0.13104  0.25000  Biso   1.000  O
  O23      1.0000 0.33159  0.58159  0.75000  Biso   1.000  O
  O24      1.0000 0.85660  0.10660  0.75000  Biso   1.000  O
  O25      1.0000 0.62019  0.86882  0.25137  Biso   1.000  O
  O26      1.0000 0.11745  0.36882  0.24863  Biso   1.000  O
  O27      1.0000 0.11745  0.86882  0.74863  Biso   1.000  O
  O28      1.0000 0.62019  0.36882  0.75137  Biso   1.000  O
  O29      1.0000 0.88255  0.13118  0.25137  Biso   1.000  O
  O30      1.0000 0.37981  0.63118  0.24863  Biso   1.000  O
  O31      1.0000 0.37981  0.13118  0.74863  Biso   1.000  O
  O32      1.0000 0.88255  0.63118  0.75137  Biso   1.000  O
  O33      1.0000 0.94976  0.95187  0.99789  Biso   1.000  O
  O34      1.0000 0.40418  0.45187  0.95231  Biso   1.000  O
  O35      1.0000 0.45398  0.95187  0.50211  Biso   1.000  O
  O36      1.0000 0.99956  0.45187  0.54769  Biso   1.000  O
  O37      1.0000 0.59582  0.54813  0.04769  Biso   1.000  O
  O38      1.0000 0.05024  0.04813  0.00211  Biso   1.000  O
  O39      1.0000 0.00044  0.54813  0.45231  Biso   1.000  O
  O40      1.0000 0.54602  0.04813  0.49789  Biso   1.000  O
