data_image0
_cell_length_a       16.1647
_cell_length_b       16.1647
_cell_length_c       7.8528
_cell_angle_alpha    104.058
_cell_angle_beta     104.058
_cell_angle_gamma    139.818

_symmetry_space_group_name_H-M    "P 1"
_symmetry_int_tables_number       1

loop_
  _symmetry_equiv_pos_as_xyz
  'x, y, z'

loop_
  _atom_site_label
  _atom_site_occupancy
  _atom_site_fract_x
  _atom_site_fract_y
  _atom_site_fract_z
  _atom_site_thermal_displace_type
  _atom_site_B_iso_or_equiv
  _atom_site_type_symbol
  K1       1.0000 0.45472  0.54528  0.00000  Biso   1.000  K
  K2       1.0000 0.54528  0.45472  1.00000  Biso   1.000  K
  K3       1.0000 0.45472  0.54528  0.50000  Biso   1.000  K
  K4       1.0000 0.54528  0.45472  0.50000  Biso   1.000  K
  Pb1      1.0000 0.98767  0.16870  0.15637  Biso   1.000  Pb
  Pb2      1.0000 0.52196  0.63441  0.15637  Biso   1.000  Pb
  Pb3      1.0000 0.83130  0.01233  0.34363  Biso   1.000  Pb
  Pb4      1.0000 0.36559  0.47804  0.34363  Biso   1.000  Pb
  Pb5      1.0000 0.16870  0.98767  0.65637  Biso   1.000  Pb
  Pb6      1.0000 0.63441  0.52196  0.65637  Biso   1.000  Pb
  Pb7      1.0000 0.01233  0.83130  0.84363  Biso   1.000  Pb
  Pb8      1.0000 0.47804  0.36559  0.84363  Biso   1.000  Pb
  Nb1      1.0000 0.75895  0.75895  0.00895  Biso   1.000  Nb
  Nb2      1.0000 0.24105  0.24105  0.99105  Biso   1.000  Nb
  Nb3      1.0000 0.75895  0.75895  0.50895  Biso   1.000  Nb
  Nb4      1.0000 0.24105  0.24105  0.49105  Biso   1.000  Nb
  Ta1      1.0000 0.56256  0.84972  0.93860  Biso   1.000  Ta
  Ta2      1.0000 0.11518  0.40234  0.99121  Biso   1.000  Ta
  Ta3      1.0000 0.59766  0.88482  0.50879  Biso   1.000  Ta
  Ta4      1.0000 0.15028  0.43744  0.56140  Biso   1.000  Ta
  Ta5      1.0000 0.88482  0.59766  0.00879  Biso   1.000  Ta
  Ta6      1.0000 0.43744  0.15028  0.06140  Biso   1.000  Ta
  Ta7      1.0000 0.84972  0.56256  0.43860  Biso   1.000  Ta
  Ta8      1.0000 0.40234  0.11518  0.49121  Biso   1.000  Ta
  O1       1.0000 0.63621  0.85641  0.74631  Biso   1.000  O
  O2       1.0000 0.14359  0.36379  0.75369  Biso   1.000  O
  O3       1.0000 0.85641  0.63621  0.24631  Biso   1.000  O
  O4       1.0000 0.36379  0.14359  0.25369  Biso   1.000  O
  O5       1.0000 0.38990  0.61010  0.75000  Biso   1.000  O
  O6       1.0000 0.88990  0.11010  0.75000  Biso   1.000  O
  O7       1.0000 0.61010  0.38990  0.25000  Biso   1.000  O
  O8       1.0000 0.11010  0.88990  0.25000  Biso   1.000  O
  O9       1.0000 0.82005  0.95029  0.24034  Biso   1.000  O
  O10      1.0000 0.26006  0.39030  0.18035  Biso   1.000  O
  O11      1.0000 0.60970  0.73994  0.31965  Biso   1.000  O
  O12      1.0000 0.04971  0.17995  0.25966  Biso   1.000  O
  O13      1.0000 0.73994  0.60970  0.81965  Biso   1.000  O
  O14      1.0000 0.17995  0.04971  0.75966  Biso   1.000  O
  O15      1.0000 0.95029  0.82005  0.74034  Biso   1.000  O
  O16      1.0000 0.39030  0.26006  0.68035  Biso   1.000  O
  O17      1.0000 0.67380  0.81253  0.74317  Biso   1.000  O
  O18      1.0000 0.18747  0.32620  0.75683  Biso   1.000  O
  O19      1.0000 0.55017  0.93616  0.24317  Biso   1.000  O
  O20      1.0000 0.06384  0.44983  0.25683  Biso   1.000  O
  O21      1.0000 0.81253  0.67380  0.24317  Biso   1.000  O
  O22      1.0000 0.32620  0.18747  0.25683  Biso   1.000  O
  O23      1.0000 0.93616  0.55017  0.74317  Biso   1.000  O
  O24      1.0000 0.44983  0.06384  0.75683  Biso   1.000  O
  O25      1.0000 0.63049  0.36951  0.75000  Biso   1.000  O
  O26      1.0000 0.25550  0.74450  0.75000  Biso   1.000  O
  O27      1.0000 0.50686  0.49314  0.25000  Biso   1.000  O
  O28      1.0000 0.13187  0.86813  0.25000  Biso   1.000  O
  O29      1.0000 0.49314  0.50686  0.75000  Biso   1.000  O
  O30      1.0000 0.86813  0.13187  0.75000  Biso   1.000  O
  O31      1.0000 0.36951  0.63049  0.25000  Biso   1.000  O
  O32      1.0000 0.74450  0.25550  0.25000  Biso   1.000  O
  O33      1.0000 0.37193  0.77567  0.76155  Biso   1.000  O
  O34      1.0000 0.09983  0.50357  0.98945  Biso   1.000  O
  O35      1.0000 0.49643  0.90017  0.51055  Biso   1.000  O
  O36      1.0000 0.22433  0.62807  0.73845  Biso   1.000  O
  O37      1.0000 0.90017  0.49643  0.01055  Biso   1.000  O
  O38      1.0000 0.62807  0.22433  0.23845  Biso   1.000  O
  O39      1.0000 0.77567  0.37193  0.26155  Biso   1.000  O
  O40      1.0000 0.50357  0.09983  0.48945  Biso   1.000  O
