data_image0
_cell_length_a       7.8528
_cell_length_b       15.1811
_cell_length_c       7.8528
_cell_angle_alpha    90
_cell_angle_beta     90
_cell_angle_gamma    90

_symmetry_space_group_name_H-M    "P 1"
_symmetry_int_tables_number       1

loop_
  _symmetry_equiv_pos_as_xyz
  'x, y, z'

loop_
  _atom_site_label
  _atom_site_occupancy
  _atom_site_fract_x
  _atom_site_fract_y
  _atom_site_fract_z
  _atom_site_thermal_displace_type
  _atom_site_B_iso_or_equiv
  _atom_site_type_symbol
  K1       1.0000 0.75000  0.57818  0.25000  Biso   1.000  K
  K2       1.0000 0.25000  0.57818  0.25000  Biso   1.000  K
  K3       1.0000 0.75000  0.42182  0.75000  Biso   1.000  K
  K4       1.0000 0.25000  0.42182  0.75000  Biso   1.000  K
  Pb1      1.0000 0.73436  0.15287  0.26564  Biso   1.000  Pb
  Pb2      1.0000 0.26564  0.15287  0.23436  Biso   1.000  Pb
  Pb3      1.0000 0.76564  0.14061  0.73436  Biso   1.000  Pb
  Pb4      1.0000 0.23436  0.14061  0.76564  Biso   1.000  Pb
  Pb5      1.0000 0.23436  0.85939  0.26564  Biso   1.000  Pb
  Pb6      1.0000 0.76564  0.85939  0.23436  Biso   1.000  Pb
  Pb7      1.0000 0.26564  0.84713  0.73436  Biso   1.000  Pb
  Pb8      1.0000 0.73436  0.84713  0.76564  Biso   1.000  Pb
  Nb1      1.0000 0.50000  0.00000  0.00000  Biso   1.000  Nb
  Nb2      1.0000 0.00000  0.00000  0.00000  Biso   1.000  Nb
  Nb3      1.0000 0.50000  0.00000  0.50000  Biso   1.000  Nb
  Nb4      1.0000 0.00000  0.00000  0.50000  Biso   1.000  Nb
  Ta1      1.0000 0.50351  0.28716  0.99161  Biso   1.000  Ta
  Ta2      1.0000 0.99649  0.28716  0.99862  Biso   1.000  Ta
  Ta3      1.0000 0.49649  0.28716  0.50839  Biso   1.000  Ta
  Ta4      1.0000 0.00351  0.28716  0.50138  Biso   1.000  Ta
  Ta5      1.0000 0.49649  0.71284  0.00839  Biso   1.000  Ta
  Ta6      1.0000 0.00351  0.71284  0.00138  Biso   1.000  Ta
  Ta7      1.0000 0.50351  0.71284  0.49161  Biso   1.000  Ta
  Ta8      1.0000 0.99649  0.71284  0.49862  Biso   1.000  Ta
  O1       1.0000 0.75000  0.04404  0.00000  Biso   1.000  O
  O2       1.0000 0.25000  0.95596  0.00000  Biso   1.000  O
  O3       1.0000 0.75000  0.95596  0.50000  Biso   1.000  O
  O4       1.0000 0.25000  0.04404  0.50000  Biso   1.000  O
  O5       1.0000 0.50000  0.08701  0.75000  Biso   1.000  O
  O6       1.0000 0.00000  0.99894  0.75000  Biso   1.000  O
  O7       1.0000 0.50000  0.91299  0.25000  Biso   1.000  O
  O8       1.0000 0.00000  0.00106  0.25000  Biso   1.000  O
  O9       1.0000 0.47897  0.13024  0.04048  Biso   1.000  O
  O10      1.0000 0.02103  0.13024  0.99841  Biso   1.000  O
  O11      1.0000 0.52103  0.13024  0.45952  Biso   1.000  O
  O12      1.0000 0.97897  0.13024  0.50159  Biso   1.000  O
  O13      1.0000 0.52103  0.86976  0.95952  Biso   1.000  O
  O14      1.0000 0.97897  0.86976  0.00159  Biso   1.000  O
  O15      1.0000 0.47897  0.86976  0.54048  Biso   1.000  O
  O16      1.0000 0.02103  0.86976  0.49841  Biso   1.000  O
  O17      1.0000 0.75000  0.23763  0.99750  Biso   1.000  O
  O18      1.0000 0.25000  0.28709  0.99750  Biso   1.000  O
  O19      1.0000 0.75000  0.28709  0.50250  Biso   1.000  O
  O20      1.0000 0.25000  0.23763  0.50250  Biso   1.000  O
  O21      1.0000 0.25000  0.76237  0.00250  Biso   1.000  O
  O22      1.0000 0.75000  0.71291  0.00250  Biso   1.000  O
  O23      1.0000 0.25000  0.71291  0.49750  Biso   1.000  O
  O24      1.0000 0.75000  0.76237  0.49750  Biso   1.000  O
  O25      1.0000 0.50000  0.67274  0.75000  Biso   1.000  O
  O26      1.0000 0.00000  0.72219  0.75000  Biso   1.000  O
  O27      1.0000 0.50000  0.80254  0.25000  Biso   1.000  O
  O28      1.0000 0.00000  0.75309  0.25000  Biso   1.000  O
  O29      1.0000 0.50000  0.19746  0.75000  Biso   1.000  O
  O30      1.0000 0.00000  0.24691  0.75000  Biso   1.000  O
  O31      1.0000 0.50000  0.32726  0.25000  Biso   1.000  O
  O32      1.0000 0.00000  0.27781  0.25000  Biso   1.000  O
  O33      1.0000 0.51245  0.40374  0.96141  Biso   1.000  O
  O34      1.0000 0.98755  0.40374  0.98631  Biso   1.000  O
  O35      1.0000 0.48755  0.40374  0.53859  Biso   1.000  O
  O36      1.0000 0.01245  0.40374  0.51369  Biso   1.000  O
  O37      1.0000 0.48755  0.59626  0.03859  Biso   1.000  O
  O38      1.0000 0.01245  0.59626  0.01369  Biso   1.000  O
  O39      1.0000 0.51245  0.59626  0.46141  Biso   1.000  O
  O40      1.0000 0.98755  0.59626  0.48631  Biso   1.000  O
