data_image0
_cell_length_a       5.55277
_cell_length_b       15.1811
_cell_length_c       7.8528
_cell_angle_alpha    90
_cell_angle_beta     135
_cell_angle_gamma    90

_symmetry_space_group_name_H-M    "P 1"
_symmetry_int_tables_number       1

loop_
  _symmetry_equiv_pos_as_xyz
  'x, y, z'

loop_
  _atom_site_label
  _atom_site_occupancy
  _atom_site_fract_x
  _atom_site_fract_y
  _atom_site_fract_z
  _atom_site_thermal_displace_type
  _atom_site_B_iso_or_equiv
  _atom_site_type_symbol
  K1       1.0000 0.50000  0.50000  0.50000  Biso   1.000  K
  K2       1.0000 0.50000  0.50000  1.00000  Biso   1.000  K
  Pb1      1.0000 0.17077  0.14674  0.41357  Biso   1.000  Pb
  Pb2      1.0000 0.48351  0.14674  0.91357  Biso   1.000  Pb
  Pb3      1.0000 0.17077  0.85326  0.91357  Biso   1.000  Pb
  Pb4      1.0000 0.48351  0.85326  0.41357  Biso   1.000  Pb
  Nb1      1.0000 0.83198  0.00000  0.91599  Biso   1.000  Nb
  Nb2      1.0000 0.83198  0.00000  0.41599  Biso   1.000  Nb
  Ta1      1.0000 0.15728  0.28716  0.06109  Biso   1.000  Ta
  Ta2      1.0000 0.08708  0.28716  0.56109  Biso   1.000  Ta
  Ta3      1.0000 0.08708  0.71284  0.06109  Biso   1.000  Ta
  Ta4      1.0000 0.15728  0.71284  0.56109  Biso   1.000  Ta
  O1       1.0000 0.69787  0.22019  0.34893  Biso   1.000  O
  O2       1.0000 0.69787  0.77981  0.84893  Biso   1.000  O
  O3       1.0000 0.41845  0.22019  0.95923  Biso   1.000  O
  O4       1.0000 0.41845  0.77981  0.45923  Biso   1.000  O
  O5       1.0000 0.02047  0.13024  0.11541  Biso   1.000  O
  O6       1.0000 0.44116  0.13024  0.61541  Biso   1.000  O
  O7       1.0000 0.44116  0.86976  0.11541  Biso   1.000  O
  O8       1.0000 0.02047  0.86976  0.61541  Biso   1.000  O
  O9       1.0000 0.59728  0.13873  0.29864  Biso   1.000  O
  O10      1.0000 0.59728  0.38599  0.79864  Biso   1.000  O
  O11      1.0000 0.59728  0.86127  0.79864  Biso   1.000  O
  O12      1.0000 0.59728  0.61401  0.29864  Biso   1.000  O
  O13      1.0000 0.12553  0.61401  0.81276  Biso   1.000  O
  O14      1.0000 0.12553  0.86127  0.31276  Biso   1.000  O
  O15      1.0000 0.12553  0.13873  0.81276  Biso   1.000  O
  O16      1.0000 0.12553  0.38599  0.31276  Biso   1.000  O
  O17      1.0000 0.19848  0.40374  0.03699  Biso   1.000  O
  O18      1.0000 0.94948  0.40374  0.53699  Biso   1.000  O
  O19      1.0000 0.94948  0.59626  0.03699  Biso   1.000  O
  O20      1.0000 0.19848  0.59626  0.53699  Biso   1.000  O
