data_image0
_cell_length_a       16.1647
_cell_length_b       16.1647
_cell_length_c       16.1647
_cell_angle_alpha    40.1819
_cell_angle_beta     151.885
_cell_angle_gamma    151.885

_symmetry_space_group_name_H-M    "P 1"
_symmetry_int_tables_number       1

loop_
  _symmetry_equiv_pos_as_xyz
  'x, y, z'

loop_
  _atom_site_label
  _atom_site_occupancy
  _atom_site_fract_x
  _atom_site_fract_y
  _atom_site_fract_z
  _atom_site_thermal_displace_type
  _atom_site_B_iso_or_equiv
  _atom_site_type_symbol
  K1       1.0000 0.28331  0.42930  0.35402  Biso   1.000  K
  K2       1.0000 0.56612  0.07070  0.99542  Biso   1.000  K
  K3       1.0000 0.07528  0.57070  0.00458  Biso   1.000  K
  K4       1.0000 0.07528  0.92930  0.64598  Biso   1.000  K
  Pb1      1.0000 0.52425  0.67633  0.70118  Biso   1.000  Pb
  Pb2      1.0000 0.52545  0.17693  0.20178  Biso   1.000  Pb
  Pb3      1.0000 0.97515  0.67693  0.15148  Biso   1.000  Pb
  Pb4      1.0000 0.97515  0.17633  0.65208  Biso   1.000  Pb
  Pb5      1.0000 0.97515  0.82307  0.29882  Biso   1.000  Pb
  Pb6      1.0000 0.97515  0.32367  0.79822  Biso   1.000  Pb
  Pb7      1.0000 0.52545  0.82367  0.84852  Biso   1.000  Pb
  Pb8      1.0000 0.52425  0.32307  0.34792  Biso   1.000  Pb
  Nb1      1.0000 0.99938  0.99938  0.00000  Biso   1.000  Nb
  Nb2      1.0000 0.99938  0.49938  0.50000  Biso   1.000  Nb
  Nb3      1.0000 0.50062  0.00062  0.50000  Biso   1.000  Nb
  Nb4      1.0000 0.50062  0.50062  0.00000  Biso   1.000  Nb
  Ta1      1.0000 0.01164  0.86806  0.85642  Biso   1.000  Ta
  Ta2      1.0000 0.01164  0.36806  0.35642  Biso   1.000  Ta
  Ta3      1.0000 0.48836  0.84478  0.35642  Biso   1.000  Ta
  Ta4      1.0000 0.48836  0.34478  0.85642  Biso   1.000  Ta
  Ta5      1.0000 0.01164  0.15522  0.14358  Biso   1.000  Ta
  Ta6      1.0000 0.01164  0.65522  0.64358  Biso   1.000  Ta
  Ta7      1.0000 0.48836  0.13194  0.64358  Biso   1.000  Ta
  Ta8      1.0000 0.48836  0.63194  0.14358  Biso   1.000  Ta
  O1       1.0000 0.75000  0.00000  0.75000  Biso   1.000  O
  O2       1.0000 0.75000  0.50000  0.25000  Biso   1.000  O
  O3       1.0000 0.25000  0.00000  0.25000  Biso   1.000  O
  O4       1.0000 0.25000  0.50000  0.75000  Biso   1.000  O
  O5       1.0000 0.25000  0.25000  0.00000  Biso   1.000  O
  O6       1.0000 0.25000  0.75000  0.50000  Biso   1.000  O
  O7       1.0000 0.75000  0.25000  0.50000  Biso   1.000  O
  O8       1.0000 0.75000  0.75000  0.00000  Biso   1.000  O
  O9       1.0000 0.98845  0.92333  0.93488  Biso   1.000  O
  O10      1.0000 0.98845  0.42333  0.43488  Biso   1.000  O
  O11      1.0000 0.51155  0.94643  0.43488  Biso   1.000  O
  O12      1.0000 0.51155  0.44643  0.93488  Biso   1.000  O
  O13      1.0000 0.98845  0.05357  0.06512  Biso   1.000  O
  O14      1.0000 0.98845  0.55357  0.56512  Biso   1.000  O
  O15      1.0000 0.51155  0.07667  0.56512  Biso   1.000  O
  O16      1.0000 0.51155  0.57667  0.06512  Biso   1.000  O
  O17      1.0000 0.75039  0.86921  0.61882  Biso   1.000  O
  O18      1.0000 0.74961  0.36843  0.11882  Biso   1.000  O
  O19      1.0000 0.24961  0.86843  0.11882  Biso   1.000  O
  O20      1.0000 0.25039  0.36921  0.61882  Biso   1.000  O
  O21      1.0000 0.25039  0.13157  0.38118  Biso   1.000  O
  O22      1.0000 0.24961  0.63079  0.88118  Biso   1.000  O
  O23      1.0000 0.74961  0.13079  0.88118  Biso   1.000  O
  O24      1.0000 0.75039  0.63157  0.38118  Biso   1.000  O
  O25      1.0000 0.25039  0.36380  0.11419  Biso   1.000  O
  O26      1.0000 0.24961  0.86380  0.61340  Biso   1.000  O
  O27      1.0000 0.75039  0.39856  0.64896  Biso   1.000  O
  O28      1.0000 0.74961  0.89856  0.14817  Biso   1.000  O
  O29      1.0000 0.24961  0.13620  0.88581  Biso   1.000  O
  O30      1.0000 0.25039  0.63620  0.38660  Biso   1.000  O
  O31      1.0000 0.74961  0.10144  0.35104  Biso   1.000  O
  O32      1.0000 0.75039  0.60144  0.85183  Biso   1.000  O
  O33      1.0000 0.03127  0.82940  0.79813  Biso   1.000  O
  O34      1.0000 0.03127  0.32940  0.29813  Biso   1.000  O
  O35      1.0000 0.46873  0.76686  0.29813  Biso   1.000  O
  O36      1.0000 0.46873  0.26686  0.79813  Biso   1.000  O
  O37      1.0000 0.03127  0.23314  0.20187  Biso   1.000  O
  O38      1.0000 0.03127  0.73314  0.70187  Biso   1.000  O
  O39      1.0000 0.46873  0.17060  0.70187  Biso   1.000  O
  O40      1.0000 0.46873  0.67060  0.20187  Biso   1.000  O
