data_image0
_cell_length_a       7.8528
_cell_length_b       15.1811
_cell_length_c       7.8528
_cell_angle_alpha    90
_cell_angle_beta     90
_cell_angle_gamma    90

_symmetry_space_group_name_H-M    "P 1"
_symmetry_int_tables_number       1

loop_
  _symmetry_equiv_pos_as_xyz
  'x, y, z'

loop_
  _atom_site_label
  _atom_site_occupancy
  _atom_site_fract_x
  _atom_site_fract_y
  _atom_site_fract_z
  _atom_site_thermal_displace_type
  _atom_site_B_iso_or_equiv
  _atom_site_type_symbol
  K1       1.0000 0.00000  0.34364  0.32528  Biso   1.000  K
  K2       1.0000 0.00000  0.50000  0.67472  Biso   1.000  K
  K3       1.0000 0.50000  0.50000  0.17472  Biso   1.000  K
  K4       1.0000 0.50000  0.65636  0.82528  Biso   1.000  K
  Pb1      1.0000 0.00000  0.84100  0.22515  Biso   1.000  Pb
  Pb2      1.0000 0.00000  0.85326  0.77485  Biso   1.000  Pb
  Pb3      1.0000 0.50000  0.85326  0.27485  Biso   1.000  Pb
  Pb4      1.0000 0.50000  0.86552  0.72515  Biso   1.000  Pb
  Pb5      1.0000 0.00000  0.14674  0.77485  Biso   1.000  Pb
  Pb6      1.0000 0.00000  0.13448  0.22515  Biso   1.000  Pb
  Pb7      1.0000 0.50000  0.15900  0.72515  Biso   1.000  Pb
  Pb8      1.0000 0.50000  0.14674  0.27485  Biso   1.000  Pb
  Nb1      1.0000 0.75062  0.00000  0.00000  Biso   1.000  Nb
  Nb2      1.0000 0.74938  0.00000  0.50000  Biso   1.000  Nb
  Nb3      1.0000 0.24938  0.00000  0.00000  Biso   1.000  Nb
  Nb4      1.0000 0.25062  0.00000  0.50000  Biso   1.000  Nb
  Ta1      1.0000 0.73348  0.71284  0.99512  Biso   1.000  Ta
  Ta2      1.0000 0.75675  0.71284  0.50488  Biso   1.000  Ta
  Ta3      1.0000 0.26652  0.71284  0.99512  Biso   1.000  Ta
  Ta4      1.0000 0.24325  0.71284  0.50488  Biso   1.000  Ta
  Ta5      1.0000 0.74325  0.28716  0.00488  Biso   1.000  Ta
  Ta6      1.0000 0.76652  0.28716  0.49512  Biso   1.000  Ta
  Ta7      1.0000 0.25675  0.28716  0.00488  Biso   1.000  Ta
  Ta8      1.0000 0.23348  0.28716  0.49512  Biso   1.000  Ta
  O1       1.0000 0.75000  0.04297  0.25000  Biso   1.000  O
  O2       1.0000 0.75000  0.95703  0.75000  Biso   1.000  O
  O3       1.0000 0.25000  0.04297  0.25000  Biso   1.000  O
  O4       1.0000 0.25000  0.95703  0.75000  Biso   1.000  O
  O5       1.0000 0.50000  0.95703  0.00000  Biso   1.000  O
  O6       1.0000 0.50000  0.95703  0.50000  Biso   1.000  O
  O7       1.0000 0.00000  0.04297  0.00000  Biso   1.000  O
  O8       1.0000 0.00000  0.04297  0.50000  Biso   1.000  O
  O9       1.0000 0.78099  0.86976  0.01945  Biso   1.000  O
  O10      1.0000 0.75790  0.86976  0.48055  Biso   1.000  O
  O11      1.0000 0.21901  0.86976  0.01945  Biso   1.000  O
  O12      1.0000 0.24210  0.86976  0.48055  Biso   1.000  O
  O13      1.0000 0.74210  0.13024  0.98055  Biso   1.000  O
  O14      1.0000 0.71901  0.13024  0.51945  Biso   1.000  O
  O15      1.0000 0.25790  0.13024  0.98055  Biso   1.000  O
  O16      1.0000 0.28099  0.13024  0.51945  Biso   1.000  O
  O17      1.0000 0.74750  0.69746  0.25000  Biso   1.000  O
  O18      1.0000 0.74750  0.77782  0.75000  Biso   1.000  O
  O19      1.0000 0.25250  0.69746  0.25000  Biso   1.000  O
  O20      1.0000 0.25250  0.77782  0.75000  Biso   1.000  O
  O21      1.0000 0.75250  0.30254  0.75000  Biso   1.000  O
  O22      1.0000 0.75250  0.22218  0.25000  Biso   1.000  O
  O23      1.0000 0.24750  0.30254  0.75000  Biso   1.000  O
  O24      1.0000 0.24750  0.22218  0.25000  Biso   1.000  O
  O25      1.0000 0.50000  0.26777  0.00250  Biso   1.000  O
  O26      1.0000 0.50000  0.33730  0.49750  Biso   1.000  O
  O27      1.0000 0.00000  0.25695  0.00250  Biso   1.000  O
  O28      1.0000 0.00000  0.18742  0.49750  Biso   1.000  O
  O29      1.0000 0.50000  0.81258  0.99750  Biso   1.000  O
  O30      1.0000 0.50000  0.74305  0.50250  Biso   1.000  O
  O31      1.0000 0.00000  0.66270  0.99750  Biso   1.000  O
  O32      1.0000 0.00000  0.73223  0.50250  Biso   1.000  O
  O33      1.0000 0.69259  0.59626  0.97386  Biso   1.000  O
  O34      1.0000 0.75513  0.59626  0.52614  Biso   1.000  O
  O35      1.0000 0.30741  0.59626  0.97386  Biso   1.000  O
  O36      1.0000 0.24487  0.59626  0.52614  Biso   1.000  O
  O37      1.0000 0.74487  0.40374  0.02614  Biso   1.000  O
  O38      1.0000 0.80741  0.40374  0.47386  Biso   1.000  O
  O39      1.0000 0.25513  0.40374  0.02614  Biso   1.000  O
  O40      1.0000 0.19259  0.40374  0.47386  Biso   1.000  O
