data_image0
_cell_length_a       15.1811
_cell_length_b       5.55277
_cell_length_c       5.55277
_cell_angle_alpha    90
_cell_angle_beta     90
_cell_angle_gamma    90

_symmetry_space_group_name_H-M    "P 1"
_symmetry_int_tables_number       1

loop_
  _symmetry_equiv_pos_as_xyz
  'x, y, z'

loop_
  _atom_site_label
  _atom_site_occupancy
  _atom_site_fract_x
  _atom_site_fract_y
  _atom_site_fract_z
  _atom_site_thermal_displace_type
  _atom_site_B_iso_or_equiv
  _atom_site_type_symbol
  K1       1.0000 0.50000  0.07528  0.42472  Biso   1.000  K
  K2       1.0000 0.50000  0.42472  0.07528  Biso   1.000  K
  Pb1      1.0000 0.14674  0.99243  0.54214  Biso   1.000  Pb
  Pb2      1.0000 0.14674  0.54214  0.99243  Biso   1.000  Pb
  Pb3      1.0000 0.85326  0.54214  0.99243  Biso   1.000  Pb
  Pb4      1.0000 0.85326  0.99243  0.54214  Biso   1.000  Pb
  Nb1      1.0000 0.00000  0.01618  0.01618  Biso   1.000  Nb
  Nb2      1.0000 0.00000  0.51742  0.51742  Biso   1.000  Nb
  Ta1      1.0000 0.28716  0.99942  0.99942  Biso   1.000  Ta
  Ta2      1.0000 0.28716  0.47614  0.47614  Biso   1.000  Ta
  Ta3      1.0000 0.71284  0.99942  0.99942  Biso   1.000  Ta
  Ta4      1.0000 0.71284  0.47614  0.47614  Biso   1.000  Ta
  O1       1.0000 0.00000  0.20815  0.70815  Biso   1.000  O
  O2       1.0000 0.00000  0.70815  0.20815  Biso   1.000  O
  O3       1.0000 0.00000  0.23021  0.23021  Biso   1.000  O
  O4       1.0000 0.00000  0.73021  0.73021  Biso   1.000  O
  O5       1.0000 0.13024  0.96537  0.96537  Biso   1.000  O
  O6       1.0000 0.13024  0.48847  0.48847  Biso   1.000  O
  O7       1.0000 0.86976  0.96537  0.96537  Biso   1.000  O
  O8       1.0000 0.86976  0.48847  0.48847  Biso   1.000  O
  O9       1.0000 0.26236  0.23745  0.73745  Biso   1.000  O
  O10      1.0000 0.26236  0.73745  0.23745  Biso   1.000  O
  O11      1.0000 0.73764  0.73745  0.23745  Biso   1.000  O
  O12      1.0000 0.73764  0.23745  0.73745  Biso   1.000  O
  O13      1.0000 0.77241  0.24027  0.24027  Biso   1.000  O
  O14      1.0000 0.70287  0.74027  0.74027  Biso   1.000  O
  O15      1.0000 0.22759  0.24027  0.24027  Biso   1.000  O
  O16      1.0000 0.29713  0.74027  0.74027  Biso   1.000  O
  O17      1.0000 0.40374  0.02387  0.02387  Biso   1.000  O
  O18      1.0000 0.40374  0.46133  0.46133  Biso   1.000  O
  O19      1.0000 0.59626  0.02387  0.02387  Biso   1.000  O
  O20      1.0000 0.59626  0.46133  0.46133  Biso   1.000  O
