data_image0
_cell_length_a       16.1647
_cell_length_b       16.1647
_cell_length_c       16.1647
_cell_angle_alpha    151.885
_cell_angle_beta     40.1819
_cell_angle_gamma    151.885

_symmetry_space_group_name_H-M    "P 1"
_symmetry_int_tables_number       1

loop_
  _symmetry_equiv_pos_as_xyz
  'x, y, z'

loop_
  _atom_site_label
  _atom_site_occupancy
  _atom_site_fract_x
  _atom_site_fract_y
  _atom_site_fract_z
  _atom_site_thermal_displace_type
  _atom_site_B_iso_or_equiv
  _atom_site_type_symbol
  K1       1.0000 0.94339  0.07528  0.86811  Biso   1.000  K
  K2       1.0000 0.20717  0.07528  0.13189  Biso   1.000  K
  K3       1.0000 0.17472  0.42472  0.75000  Biso   1.000  K
  K4       1.0000 0.67472  0.42472  0.25000  Biso   1.000  K
  Pb1      1.0000 0.55538  0.97515  0.58023  Biso   1.000  Pb
  Pb2      1.0000 0.04166  0.97515  0.06651  Biso   1.000  Pb
  Pb3      1.0000 0.09822  0.52485  0.57337  Biso   1.000  Pb
  Pb4      1.0000 0.59822  0.52485  0.07337  Biso   1.000  Pb
  Pb5      1.0000 0.95148  0.52485  0.42663  Biso   1.000  Pb
  Pb6      1.0000 0.45148  0.52485  0.92663  Biso   1.000  Pb
  Pb7      1.0000 0.39492  0.97515  0.41977  Biso   1.000  Pb
  Pb8      1.0000 0.90864  0.97515  0.93349  Biso   1.000  Pb
  Nb1      1.0000 0.25179  0.99938  0.74759  Biso   1.000  Nb
  Nb2      1.0000 0.74821  0.99938  0.25117  Biso   1.000  Nb
  Nb3      1.0000 0.74821  0.49704  0.74883  Biso   1.000  Nb
  Nb4      1.0000 0.25179  0.50420  0.25241  Biso   1.000  Nb
  Ta1      1.0000 0.38832  0.01164  0.91048  Biso   1.000  Ta
  Ta2      1.0000 0.89884  0.01164  0.39996  Biso   1.000  Ta
  Ta3      1.0000 0.89884  0.49889  0.88720  Biso   1.000  Ta
  Ta4      1.0000 0.38832  0.47784  0.37668  Biso   1.000  Ta
  Ta5      1.0000 0.10116  0.01164  0.62332  Biso   1.000  Ta
  Ta6      1.0000 0.61168  0.01164  0.11280  Biso   1.000  Ta
  Ta7      1.0000 0.61168  0.49889  0.60004  Biso   1.000  Ta
  Ta8      1.0000 0.10116  0.47784  0.08952  Biso   1.000  Ta
  O1       1.0000 0.50000  0.25074  0.75074  Biso   1.000  O
  O2       1.0000 0.00000  0.24926  0.24926  Biso   1.000  O
  O3       1.0000 0.00000  0.75074  0.75074  Biso   1.000  O
  O4       1.0000 0.50000  0.74926  0.24926  Biso   1.000  O
  O5       1.0000 0.24926  0.24926  0.00000  Biso   1.000  O
  O6       1.0000 0.75074  0.25074  0.50000  Biso   1.000  O
  O7       1.0000 0.75074  0.75074  0.00000  Biso   1.000  O
  O8       1.0000 0.24926  0.74926  0.50000  Biso   1.000  O
  O9       1.0000 0.32112  0.98845  0.79757  Biso   1.000  O
  O10      1.0000 0.80912  0.98845  0.30957  Biso   1.000  O
  O11      1.0000 0.80912  0.49955  0.82067  Biso   1.000  O
  O12      1.0000 0.32112  0.52355  0.33267  Biso   1.000  O
  O13      1.0000 0.19088  0.98845  0.66733  Biso   1.000  O
  O14      1.0000 0.67888  0.98845  0.17933  Biso   1.000  O
  O15      1.0000 0.67888  0.49955  0.69043  Biso   1.000  O
  O16      1.0000 0.19088  0.52355  0.20243  Biso   1.000  O
  O17      1.0000 0.64368  0.25137  0.89505  Biso   1.000  O
  O18      1.0000 0.11868  0.24863  0.36731  Biso   1.000  O
  O19      1.0000 0.11868  0.75137  0.87004  Biso   1.000  O
  O20      1.0000 0.64368  0.74863  0.39232  Biso   1.000  O
  O21      1.0000 0.88132  0.75137  0.63269  Biso   1.000  O
  O22      1.0000 0.35632  0.74863  0.10495  Biso   1.000  O
  O23      1.0000 0.35632  0.25137  0.60768  Biso   1.000  O
  O24      1.0000 0.88132  0.24863  0.12996  Biso   1.000  O
  O25      1.0000 0.14734  0.24863  0.89870  Biso   1.000  O
  O26      1.0000 0.62507  0.25137  0.37370  Biso   1.000  O
  O27      1.0000 0.61531  0.75137  0.86394  Biso   1.000  O
  O28      1.0000 0.08757  0.74863  0.33894  Biso   1.000  O
  O29      1.0000 0.34993  0.24863  0.10130  Biso   1.000  O
  O30      1.0000 0.87767  0.25137  0.62630  Biso   1.000  O
  O31      1.0000 0.88743  0.75137  0.13606  Biso   1.000  O
  O32      1.0000 0.40970  0.74863  0.66106  Biso   1.000  O
  O33      1.0000 0.42908  0.03127  0.00593  Biso   1.000  O
  O34      1.0000 0.97466  0.03127  0.46035  Biso   1.000  O
  O35      1.0000 0.97466  0.51431  0.94339  Biso   1.000  O
  O36      1.0000 0.42908  0.42315  0.39781  Biso   1.000  O
  O37      1.0000 0.02534  0.03127  0.60219  Biso   1.000  O
  O38      1.0000 0.57092  0.03127  0.05661  Biso   1.000  O
  O39      1.0000 0.57092  0.51431  0.53965  Biso   1.000  O
  O40      1.0000 0.02534  0.42315  0.99407  Biso   1.000  O
