data_image0
_cell_length_a       16.1647
_cell_length_b       16.1647
_cell_length_c       16.1647
_cell_angle_alpha    40.1819
_cell_angle_beta     151.885
_cell_angle_gamma    151.885

_symmetry_space_group_name_H-M    "P 1"
_symmetry_int_tables_number       1

loop_
  _symmetry_equiv_pos_as_xyz
  'x, y, z'

loop_
  _atom_site_label
  _atom_site_occupancy
  _atom_site_fract_x
  _atom_site_fract_y
  _atom_site_fract_z
  _atom_site_thermal_displace_type
  _atom_site_B_iso_or_equiv
  _atom_site_type_symbol
  K1       1.0000 0.17472  0.42472  0.75000  Biso   1.000  K
  K2       1.0000 0.17472  0.92472  0.25000  Biso   1.000  K
  K3       1.0000 0.82528  0.07528  0.75000  Biso   1.000  K
  K4       1.0000 0.82528  0.57528  0.25000  Biso   1.000  K
  Pb1      1.0000 0.27485  0.34243  0.56757  Biso   1.000  Pb
  Pb2      1.0000 0.27485  0.85402  0.07917  Biso   1.000  Pb
  Pb3      1.0000 0.72515  0.80431  0.57917  Biso   1.000  Pb
  Pb4      1.0000 0.72515  0.29272  0.06757  Biso   1.000  Pb
  Pb5      1.0000 0.72515  0.65757  0.43243  Biso   1.000  Pb
  Pb6      1.0000 0.72515  0.14598  0.92083  Biso   1.000  Pb
  Pb7      1.0000 0.27485  0.19569  0.42083  Biso   1.000  Pb
  Pb8      1.0000 0.27485  0.70728  0.93243  Biso   1.000  Pb
  Nb1      1.0000 0.74938  0.50000  0.74938  Biso   1.000  Nb
  Nb2      1.0000 0.74938  0.00000  0.24938  Biso   1.000  Nb
  Nb3      1.0000 0.25062  0.00000  0.75062  Biso   1.000  Nb
  Nb4      1.0000 0.25062  0.50000  0.25062  Biso   1.000  Nb
  Ta1      1.0000 0.76051  0.64245  0.90522  Biso   1.000  Ta
  Ta2      1.0000 0.76277  0.14471  0.40522  Biso   1.000  Ta
  Ta3      1.0000 0.23949  0.14471  0.88194  Biso   1.000  Ta
  Ta4      1.0000 0.23723  0.64245  0.38194  Biso   1.000  Ta
  Ta5      1.0000 0.76277  0.35755  0.61806  Biso   1.000  Ta
  Ta6      1.0000 0.76051  0.85529  0.11806  Biso   1.000  Ta
  Ta7      1.0000 0.23723  0.85529  0.59478  Biso   1.000  Ta
  Ta8      1.0000 0.23949  0.35755  0.09478  Biso   1.000  Ta
  O1       1.0000 0.50000  0.29304  0.79304  Biso   1.000  O
  O2       1.0000 0.50000  0.70696  0.20696  Biso   1.000  O
  O3       1.0000 0.00000  0.70696  0.70696  Biso   1.000  O
  O4       1.0000 0.00000  0.29304  0.29304  Biso   1.000  O
  O5       1.0000 0.00000  0.50000  0.00000  Biso   1.000  O
  O6       1.0000 0.00000  0.00000  0.50000  Biso   1.000  O
  O7       1.0000 0.50000  0.00000  0.00000  Biso   1.000  O
  O8       1.0000 0.50000  0.50000  0.50000  Biso   1.000  O
  O9       1.0000 0.77204  0.59871  0.80357  Biso   1.000  O
  O10      1.0000 0.70486  0.03153  0.30357  Biso   1.000  O
  O11      1.0000 0.22796  0.03153  0.82667  Biso   1.000  O
  O12      1.0000 0.29514  0.59871  0.32667  Biso   1.000  O
  O13      1.0000 0.70486  0.40129  0.67333  Biso   1.000  O
  O14      1.0000 0.77204  0.96847  0.17333  Biso   1.000  O
  O15      1.0000 0.29514  0.96847  0.69643  Biso   1.000  O
  O16      1.0000 0.22796  0.40129  0.19643  Biso   1.000  O
  O17      1.0000 0.50000  0.36262  0.86262  Biso   1.000  O
  O18      1.0000 0.50000  0.89974  0.39974  Biso   1.000  O
  O19      1.0000 0.00000  0.89974  0.89974  Biso   1.000  O
  O20      1.0000 0.00000  0.36262  0.36262  Biso   1.000  O
  O21      1.0000 0.00000  0.63738  0.63738  Biso   1.000  O
  O22      1.0000 0.00000  0.10026  0.10026  Biso   1.000  O
  O23      1.0000 0.50000  0.10026  0.60026  Biso   1.000  O
  O24      1.0000 0.50000  0.63738  0.13738  Biso   1.000  O
  O25      1.0000 0.00411  0.39031  0.88620  Biso   1.000  O
  O26      1.0000 0.99589  0.88210  0.38620  Biso   1.000  O
  O27      1.0000 0.49589  0.84733  0.85144  Biso   1.000  O
  O28      1.0000 0.50411  0.35554  0.35144  Biso   1.000  O
  O29      1.0000 0.99589  0.60969  0.11380  Biso   1.000  O
  O30      1.0000 0.00411  0.11790  0.61380  Biso   1.000  O
  O31      1.0000 0.50411  0.15267  0.14856  Biso   1.000  O
  O32      1.0000 0.49589  0.64446  0.64856  Biso   1.000  O
  O33      1.0000 0.77427  0.69487  0.98314  Biso   1.000  O
  O34      1.0000 0.78827  0.20887  0.48314  Biso   1.000  O
  O35      1.0000 0.22573  0.20887  0.92060  Biso   1.000  O
  O36      1.0000 0.21173  0.69487  0.42060  Biso   1.000  O
  O37      1.0000 0.78827  0.30513  0.57940  Biso   1.000  O
  O38      1.0000 0.77427  0.79113  0.07940  Biso   1.000  O
  O39      1.0000 0.21173  0.79113  0.51686  Biso   1.000  O
  O40      1.0000 0.22573  0.30513  0.01686  Biso   1.000  O
