data_image0
_cell_length_a       16.1647
_cell_length_b       16.1647
_cell_length_c       7.8528
_cell_angle_alpha    104.058
_cell_angle_beta     104.058
_cell_angle_gamma    139.818

_symmetry_space_group_name_H-M    "P 1"
_symmetry_int_tables_number       1

loop_
  _symmetry_equiv_pos_as_xyz
  'x, y, z'

loop_
  _atom_site_label
  _atom_site_occupancy
  _atom_site_fract_x
  _atom_site_fract_y
  _atom_site_fract_z
  _atom_site_thermal_displace_type
  _atom_site_B_iso_or_equiv
  _atom_site_type_symbol
  K1       1.0000 0.18820  0.18820  0.12641  Biso   1.000  K
  K2       1.0000 0.68820  0.68820  0.12641  Biso   1.000  K
  K3       1.0000 0.81180  0.81180  0.87359  Biso   1.000  K
  K4       1.0000 0.31180  0.31180  0.87359  Biso   1.000  K
  Pb1      1.0000 0.14348  0.73226  0.62574  Biso   1.000  Pb
  Pb2      1.0000 0.58552  0.29022  0.62574  Biso   1.000  Pb
  Pb3      1.0000 0.26774  0.85652  0.37426  Biso   1.000  Pb
  Pb4      1.0000 0.70978  0.41448  0.37426  Biso   1.000  Pb
  Pb5      1.0000 0.41448  0.70978  0.37426  Biso   1.000  Pb
  Pb6      1.0000 0.85652  0.26774  0.37426  Biso   1.000  Pb
  Pb7      1.0000 0.29022  0.58552  0.62574  Biso   1.000  Pb
  Pb8      1.0000 0.73226  0.14348  0.62574  Biso   1.000  Pb
  Nb1      1.0000 0.49844  0.99844  0.74689  Biso   1.000  Nb
  Nb2      1.0000 0.99844  0.49844  0.74689  Biso   1.000  Nb
  Nb3      1.0000 0.50156  0.00156  0.25311  Biso   1.000  Nb
  Nb4      1.0000 0.00156  0.50156  0.25311  Biso   1.000  Nb
  Ta1      1.0000 0.37988  0.16704  0.80256  Biso   1.000  Ta
  Ta2      1.0000 0.89115  0.67831  0.81383  Biso   1.000  Ta
  Ta3      1.0000 0.32169  0.10885  0.18617  Biso   1.000  Ta
  Ta4      1.0000 0.83296  0.62012  0.19744  Biso   1.000  Ta
  Ta5      1.0000 0.67831  0.89115  0.81383  Biso   1.000  Ta
  Ta6      1.0000 0.16704  0.37988  0.80256  Biso   1.000  Ta
  Ta7      1.0000 0.62012  0.83296  0.19744  Biso   1.000  Ta
  Ta8      1.0000 0.10885  0.32169  0.18617  Biso   1.000  Ta
  O1       1.0000 0.50000  0.00000  0.00000  Biso   1.000  O
  O2       1.0000 0.00000  0.50000  0.00000  Biso   1.000  O
  O3       1.0000 0.50000  0.00000  0.50000  Biso   1.000  O
  O4       1.0000 0.00000  0.50000  0.50000  Biso   1.000  O
  O5       1.0000 0.96520  0.03480  0.00000  Biso   1.000  O
  O6       1.0000 0.03480  0.96520  0.00000  Biso   1.000  O
  O7       1.0000 0.96520  0.03480  0.50000  Biso   1.000  O
  O8       1.0000 0.03480  0.96520  0.50000  Biso   1.000  O
  O9       1.0000 0.57394  0.20418  0.86019  Biso   1.000  O
  O10      1.0000 0.73807  0.36831  0.52432  Biso   1.000  O
  O11      1.0000 0.63169  0.26193  0.47568  Biso   1.000  O
  O12      1.0000 0.79582  0.42606  0.13981  Biso   1.000  O
  O13      1.0000 0.36831  0.73807  0.52432  Biso   1.000  O
  O14      1.0000 0.20418  0.57394  0.86019  Biso   1.000  O
  O15      1.0000 0.42606  0.79582  0.13981  Biso   1.000  O
  O16      1.0000 0.26193  0.63169  0.47568  Biso   1.000  O
  O17      1.0000 0.39175  0.06719  0.97947  Biso   1.000  O
  O18      1.0000 0.93281  0.60825  0.02053  Biso   1.000  O
  O19      1.0000 0.30483  0.15411  0.47947  Biso   1.000  O
  O20      1.0000 0.84589  0.69517  0.52053  Biso   1.000  O
  O21      1.0000 0.69517  0.84589  0.52053  Biso   1.000  O
  O22      1.0000 0.15411  0.30483  0.47947  Biso   1.000  O
  O23      1.0000 0.60825  0.93281  0.02053  Biso   1.000  O
  O24      1.0000 0.06719  0.39175  0.97947  Biso   1.000  O
  O25      1.0000 0.74495  0.25505  0.00000  Biso   1.000  O
  O26      1.0000 0.43050  0.56950  0.00000  Biso   1.000  O
  O27      1.0000 0.83186  0.16814  0.50000  Biso   1.000  O
  O28      1.0000 0.51741  0.48259  0.50000  Biso   1.000  O
  O29      1.0000 0.56950  0.43050  0.00000  Biso   1.000  O
  O30      1.0000 0.25505  0.74495  0.00000  Biso   1.000  O
  O31      1.0000 0.48259  0.51741  0.50000  Biso   1.000  O
  O32      1.0000 0.16814  0.83186  0.50000  Biso   1.000  O
  O33      1.0000 0.34132  0.24506  0.87137  Biso   1.000  O
  O34      1.0000 0.91129  0.81503  0.94134  Biso   1.000  O
  O35      1.0000 0.18497  0.08871  0.05866  Biso   1.000  O
  O36      1.0000 0.75494  0.65868  0.12863  Biso   1.000  O
  O37      1.0000 0.81503  0.91129  0.94134  Biso   1.000  O
  O38      1.0000 0.24506  0.34132  0.87137  Biso   1.000  O
  O39      1.0000 0.65868  0.75494  0.12863  Biso   1.000  O
  O40      1.0000 0.08871  0.18497  0.05866  Biso   1.000  O
