data_image0
_cell_length_a       5.55277
_cell_length_b       30.3622
_cell_length_c       5.55277
_cell_angle_alpha    90
_cell_angle_beta     90
_cell_angle_gamma    90

_symmetry_space_group_name_H-M    "P 1"
_symmetry_int_tables_number       1

loop_
  _symmetry_equiv_pos_as_xyz
  'x, y, z'

loop_
  _atom_site_label
  _atom_site_occupancy
  _atom_site_fract_x
  _atom_site_fract_y
  _atom_site_fract_z
  _atom_site_thermal_displace_type
  _atom_site_B_iso_or_equiv
  _atom_site_type_symbol
  K1       1.0000 0.17472  0.50000  0.70839  Biso   1.000  K
  K2       1.0000 0.17472  0.00000  0.64105  Biso   1.000  K
  K3       1.0000 0.82528  0.50000  0.29161  Biso   1.000  K
  K4       1.0000 0.82528  0.00000  0.35895  Biso   1.000  K
  Pb1      1.0000 0.27485  0.67663  0.74676  Biso   1.000  Pb
  Pb2      1.0000 0.27485  0.17663  0.80294  Biso   1.000  Pb
  Pb3      1.0000 0.72515  0.67663  0.25324  Biso   1.000  Pb
  Pb4      1.0000 0.72515  0.17663  0.19706  Biso   1.000  Pb
  Pb5      1.0000 0.72515  0.82337  0.19706  Biso   1.000  Pb
  Pb6      1.0000 0.72515  0.32337  0.25324  Biso   1.000  Pb
  Pb7      1.0000 0.27485  0.82337  0.80294  Biso   1.000  Pb
  Pb8      1.0000 0.27485  0.32337  0.74676  Biso   1.000  Pb
  Nb1      1.0000 0.74938  0.75000  0.75062  Biso   1.000  Nb
  Nb2      1.0000 0.74938  0.25000  0.75062  Biso   1.000  Nb
  Nb3      1.0000 0.25062  0.75000  0.24938  Biso   1.000  Nb
  Nb4      1.0000 0.25062  0.25000  0.24938  Biso   1.000  Nb
  Ta1      1.0000 0.76164  0.60642  0.74482  Biso   1.000  Ta
  Ta2      1.0000 0.76164  0.10642  0.73190  Biso   1.000  Ta
  Ta3      1.0000 0.23836  0.60642  0.25518  Biso   1.000  Ta
  Ta4      1.0000 0.23836  0.10642  0.26810  Biso   1.000  Ta
  Ta5      1.0000 0.76164  0.89358  0.73190  Biso   1.000  Ta
  Ta6      1.0000 0.76164  0.39358  0.74482  Biso   1.000  Ta
  Ta7      1.0000 0.23836  0.89358  0.26810  Biso   1.000  Ta
  Ta8      1.0000 0.23836  0.39358  0.25518  Biso   1.000  Ta
  O1       1.0000 0.50000  0.77055  0.50000  Biso   1.000  O
  O2       1.0000 0.50000  0.22945  0.50000  Biso   1.000  O
  O3       1.0000 0.00000  0.72945  0.00000  Biso   1.000  O
  O4       1.0000 0.00000  0.27055  0.00000  Biso   1.000  O
  O5       1.0000 0.00000  0.77055  0.50000  Biso   1.000  O
  O6       1.0000 0.00000  0.22945  0.50000  Biso   1.000  O
  O7       1.0000 0.50000  0.72945  0.00000  Biso   1.000  O
  O8       1.0000 0.50000  0.27055  0.00000  Biso   1.000  O
  O9       1.0000 0.73845  0.68488  0.72238  Biso   1.000  O
  O10      1.0000 0.73845  0.18488  0.80072  Biso   1.000  O
  O11      1.0000 0.26155  0.68488  0.27762  Biso   1.000  O
  O12      1.0000 0.26155  0.18488  0.19928  Biso   1.000  O
  O13      1.0000 0.73845  0.81512  0.80072  Biso   1.000  O
  O14      1.0000 0.73845  0.31512  0.72238  Biso   1.000  O
  O15      1.0000 0.26155  0.81512  0.19928  Biso   1.000  O
  O16      1.0000 0.26155  0.31512  0.27762  Biso   1.000  O
  O17      1.0000 0.50000  0.60689  0.50000  Biso   1.000  O
  O18      1.0000 0.50000  0.13075  0.50000  Biso   1.000  O
  O19      1.0000 0.00000  0.63075  0.00000  Biso   1.000  O
  O20      1.0000 0.00000  0.10689  0.00000  Biso   1.000  O
  O21      1.0000 0.00000  0.89311  0.00000  Biso   1.000  O
  O22      1.0000 0.00000  0.36925  0.00000  Biso   1.000  O
  O23      1.0000 0.50000  0.86925  0.50000  Biso   1.000  O
  O24      1.0000 0.50000  0.39311  0.50000  Biso   1.000  O
  O25      1.0000 0.00000  0.85187  0.50000  Biso   1.000  O
  O26      1.0000 0.00000  0.37573  0.50000  Biso   1.000  O
  O27      1.0000 0.50000  0.91049  0.00000  Biso   1.000  O
  O28      1.0000 0.50000  0.38663  0.00000  Biso   1.000  O
  O29      1.0000 0.00000  0.62427  0.50000  Biso   1.000  O
  O30      1.0000 0.00000  0.14813  0.50000  Biso   1.000  O
  O31      1.0000 0.50000  0.61337  0.00000  Biso   1.000  O
  O32      1.0000 0.50000  0.08951  0.00000  Biso   1.000  O
  O33      1.0000 0.78127  0.54813  0.74427  Biso   1.000  O
  O34      1.0000 0.78127  0.04813  0.69319  Biso   1.000  O
  O35      1.0000 0.21873  0.54813  0.25573  Biso   1.000  O
  O36      1.0000 0.21873  0.04813  0.30681  Biso   1.000  O
  O37      1.0000 0.78127  0.95187  0.69319  Biso   1.000  O
  O38      1.0000 0.78127  0.45187  0.74427  Biso   1.000  O
  O39      1.0000 0.21873  0.95187  0.30681  Biso   1.000  O
  O40      1.0000 0.21873  0.45187  0.25573  Biso   1.000  O
