data_image0
_cell_length_a       16.1647
_cell_length_b       16.1647
_cell_length_c       7.8528
_cell_angle_alpha    104.058
_cell_angle_beta     104.058
_cell_angle_gamma    139.818

_symmetry_space_group_name_H-M    "P 1"
_symmetry_int_tables_number       1

loop_
  _symmetry_equiv_pos_as_xyz
  'x, y, z'

loop_
  _atom_site_label
  _atom_site_occupancy
  _atom_site_fract_x
  _atom_site_fract_y
  _atom_site_fract_z
  _atom_site_thermal_displace_type
  _atom_site_B_iso_or_equiv
  _atom_site_type_symbol
  K1       1.0000 0.26652  0.35708  0.37359  Biso   1.000  K
  K2       1.0000 0.35708  0.26652  0.37359  Biso   1.000  K
  K3       1.0000 0.64292  0.73348  0.62641  Biso   1.000  K
  K4       1.0000 0.73348  0.64292  0.62641  Biso   1.000  K
  Pb1      1.0000 0.97162  0.15265  0.87426  Biso   1.000  Pb
  Pb2      1.0000 0.50591  0.61836  0.87426  Biso   1.000  Pb
  Pb3      1.0000 0.84735  0.02838  0.12574  Biso   1.000  Pb
  Pb4      1.0000 0.38164  0.49409  0.12574  Biso   1.000  Pb
  Pb5      1.0000 0.02838  0.84735  0.12574  Biso   1.000  Pb
  Pb6      1.0000 0.49409  0.38164  0.12574  Biso   1.000  Pb
  Pb7      1.0000 0.15265  0.97162  0.87426  Biso   1.000  Pb
  Pb8      1.0000 0.61836  0.50591  0.87426  Biso   1.000  Pb
  Nb1      1.0000 0.76051  0.76051  0.76206  Biso   1.000  Nb
  Nb2      1.0000 0.24261  0.24261  0.74416  Biso   1.000  Nb
  Nb3      1.0000 0.75739  0.75739  0.25584  Biso   1.000  Nb
  Nb4      1.0000 0.23949  0.23949  0.23794  Biso   1.000  Nb
  Ta1      1.0000 0.55102  0.83818  0.66550  Biso   1.000  Ta
  Ta2      1.0000 0.10363  0.39079  0.71812  Biso   1.000  Ta
  Ta3      1.0000 0.60921  0.89637  0.28188  Biso   1.000  Ta
  Ta4      1.0000 0.16182  0.44898  0.33450  Biso   1.000  Ta
  Ta5      1.0000 0.83818  0.55102  0.66550  Biso   1.000  Ta
  Ta6      1.0000 0.39079  0.10363  0.71812  Biso   1.000  Ta
  Ta7      1.0000 0.89637  0.60921  0.28188  Biso   1.000  Ta
  Ta8      1.0000 0.44898  0.16182  0.33450  Biso   1.000  Ta
  O1       1.0000 0.74631  0.74631  0.49631  Biso   1.000  O
  O2       1.0000 0.25369  0.25369  0.50369  Biso   1.000  O
  O3       1.0000 0.74631  0.74631  0.99631  Biso   1.000  O
  O4       1.0000 0.25369  0.25369  0.00369  Biso   1.000  O
  O5       1.0000 0.50000  0.50000  0.50000  Biso   1.000  O
  O6       1.0000 0.00000  0.00000  0.50000  Biso   1.000  O
  O7       1.0000 0.50000  0.50000  0.00000  Biso   1.000  O
  O8       1.0000 0.00000  0.00000  0.00000  Biso   1.000  O
  O9       1.0000 0.74375  0.87399  0.83774  Biso   1.000  O
  O10      1.0000 0.18375  0.31399  0.77775  Biso   1.000  O
  O11      1.0000 0.68601  0.81625  0.22225  Biso   1.000  O
  O12      1.0000 0.12601  0.25625  0.16226  Biso   1.000  O
  O13      1.0000 0.87399  0.74375  0.83774  Biso   1.000  O
  O14      1.0000 0.31399  0.18375  0.77775  Biso   1.000  O
  O15      1.0000 0.81625  0.68601  0.22225  Biso   1.000  O
  O16      1.0000 0.25625  0.12601  0.16226  Biso   1.000  O
  O17      1.0000 0.65544  0.83089  0.49317  Biso   1.000  O
  O18      1.0000 0.16911  0.34456  0.50683  Biso   1.000  O
  O19      1.0000 0.56853  0.91780  0.99317  Biso   1.000  O
  O20      1.0000 0.08220  0.43147  0.00683  Biso   1.000  O
  O21      1.0000 0.91780  0.56853  0.99317  Biso   1.000  O
  O22      1.0000 0.43147  0.08220  0.00683  Biso   1.000  O
  O23      1.0000 0.83089  0.65544  0.49317  Biso   1.000  O
  O24      1.0000 0.34456  0.16911  0.50683  Biso   1.000  O
  O25      1.0000 0.52521  0.47479  0.50000  Biso   1.000  O
  O26      1.0000 0.15023  0.84977  0.50000  Biso   1.000  O
  O27      1.0000 0.61213  0.38787  0.00000  Biso   1.000  O
  O28      1.0000 0.23715  0.76285  0.00000  Biso   1.000  O
  O29      1.0000 0.47479  0.52521  0.50000  Biso   1.000  O
  O30      1.0000 0.84977  0.15023  0.50000  Biso   1.000  O
  O31      1.0000 0.38787  0.61213  0.00000  Biso   1.000  O
  O32      1.0000 0.76285  0.23715  0.00000  Biso   1.000  O
  O33      1.0000 0.35601  0.75975  0.47970  Biso   1.000  O
  O34      1.0000 0.08390  0.48764  0.70760  Biso   1.000  O
  O35      1.0000 0.51236  0.91610  0.29240  Biso   1.000  O
  O36      1.0000 0.24025  0.64399  0.52030  Biso   1.000  O
  O37      1.0000 0.75975  0.35601  0.47970  Biso   1.000  O
  O38      1.0000 0.48764  0.08390  0.70760  Biso   1.000  O
  O39      1.0000 0.91610  0.51236  0.29240  Biso   1.000  O
  O40      1.0000 0.64399  0.24025  0.52030  Biso   1.000  O
