data_image0
_cell_length_a       15.1811
_cell_length_b       7.8528
_cell_length_c       7.8528
_cell_angle_alpha    90
_cell_angle_beta     90
_cell_angle_gamma    90

_symmetry_space_group_name_H-M    "P 1"
_symmetry_int_tables_number       1

loop_
  _symmetry_equiv_pos_as_xyz
  'x, y, z'

loop_
  _atom_site_label
  _atom_site_occupancy
  _atom_site_fract_x
  _atom_site_fract_y
  _atom_site_fract_z
  _atom_site_thermal_displace_type
  _atom_site_B_iso_or_equiv
  _atom_site_type_symbol
  K1       1.0000 0.50000  0.14598  0.32070  Biso   1.000  K
  K2       1.0000 0.50000  0.49542  0.17930  Biso   1.000  K
  K3       1.0000 0.50000  0.85402  0.82070  Biso   1.000  K
  K4       1.0000 0.50000  0.50458  0.67930  Biso   1.000  K
  Pb1      1.0000 0.85326  0.97549  0.25035  Biso   1.000  Pb
  Pb2      1.0000 0.85326  0.52520  0.24965  Biso   1.000  Pb
  Pb3      1.0000 0.85326  0.02451  0.75035  Biso   1.000  Pb
  Pb4      1.0000 0.85326  0.47480  0.74965  Biso   1.000  Pb
  Pb5      1.0000 0.14674  0.52520  0.24965  Biso   1.000  Pb
  Pb6      1.0000 0.14674  0.97549  0.25035  Biso   1.000  Pb
  Pb7      1.0000 0.14674  0.47480  0.74965  Biso   1.000  Pb
  Pb8      1.0000 0.14674  0.02451  0.75035  Biso   1.000  Pb
  Nb1      1.0000 0.00000  0.75000  0.00062  Biso   1.000  Nb
  Nb2      1.0000 0.00000  0.25000  0.99938  Biso   1.000  Nb
  Nb3      1.0000 0.00000  0.75000  0.49938  Biso   1.000  Nb
  Nb4      1.0000 0.00000  0.25000  0.50062  Biso   1.000  Nb
  Ta1      1.0000 0.71284  0.75000  0.98836  Biso   1.000  Ta
  Ta2      1.0000 0.71284  0.25000  0.01164  Biso   1.000  Ta
  Ta3      1.0000 0.71284  0.75000  0.51164  Biso   1.000  Ta
  Ta4      1.0000 0.71284  0.25000  0.48836  Biso   1.000  Ta
  Ta5      1.0000 0.28716  0.75000  0.98836  Biso   1.000  Ta
  Ta6      1.0000 0.28716  0.25000  0.01164  Biso   1.000  Ta
  Ta7      1.0000 0.28716  0.75000  0.51164  Biso   1.000  Ta
  Ta8      1.0000 0.28716  0.25000  0.48836  Biso   1.000  Ta
  O1       1.0000 0.00000  0.00000  0.00000  Biso   1.000  O
  O2       1.0000 0.00000  0.50000  0.00000  Biso   1.000  O
  O3       1.0000 0.00000  0.00000  0.50000  Biso   1.000  O
  O4       1.0000 0.00000  0.50000  0.50000  Biso   1.000  O
  O5       1.0000 0.00000  0.75000  0.75000  Biso   1.000  O
  O6       1.0000 0.00000  0.25000  0.75000  Biso   1.000  O
  O7       1.0000 0.00000  0.75000  0.25000  Biso   1.000  O
  O8       1.0000 0.00000  0.25000  0.25000  Biso   1.000  O
  O9       1.0000 0.86976  0.75000  0.01155  Biso   1.000  O
  O10      1.0000 0.86976  0.25000  0.98845  Biso   1.000  O
  O11      1.0000 0.86976  0.75000  0.48845  Biso   1.000  O
  O12      1.0000 0.86976  0.25000  0.51155  Biso   1.000  O
  O13      1.0000 0.13024  0.75000  0.01155  Biso   1.000  O
  O14      1.0000 0.13024  0.25000  0.98845  Biso   1.000  O
  O15      1.0000 0.13024  0.75000  0.48845  Biso   1.000  O
  O16      1.0000 0.13024  0.25000  0.51155  Biso   1.000  O
  O17      1.0000 0.73764  0.00000  0.99961  Biso   1.000  O
  O18      1.0000 0.73764  0.50000  0.00039  Biso   1.000  O
  O19      1.0000 0.73764  0.00000  0.49961  Biso   1.000  O
  O20      1.0000 0.73764  0.50000  0.50039  Biso   1.000  O
  O21      1.0000 0.26236  0.50000  0.00039  Biso   1.000  O
  O22      1.0000 0.26236  0.00000  0.99961  Biso   1.000  O
  O23      1.0000 0.26236  0.50000  0.50039  Biso   1.000  O
  O24      1.0000 0.26236  0.00000  0.49961  Biso   1.000  O
  O25      1.0000 0.22759  0.75039  0.75000  Biso   1.000  O
  O26      1.0000 0.29713  0.25039  0.75000  Biso   1.000  O
  O27      1.0000 0.29713  0.74961  0.25000  Biso   1.000  O
  O28      1.0000 0.22759  0.24961  0.25000  Biso   1.000  O
  O29      1.0000 0.77241  0.75039  0.75000  Biso   1.000  O
  O30      1.0000 0.70287  0.25039  0.75000  Biso   1.000  O
  O31      1.0000 0.70287  0.74961  0.25000  Biso   1.000  O
  O32      1.0000 0.77241  0.24961  0.25000  Biso   1.000  O
  O33      1.0000 0.59626  0.75000  0.96873  Biso   1.000  O
  O34      1.0000 0.59626  0.25000  0.03127  Biso   1.000  O
  O35      1.0000 0.59626  0.75000  0.53127  Biso   1.000  O
  O36      1.0000 0.59626  0.25000  0.46873  Biso   1.000  O
  O37      1.0000 0.40374  0.75000  0.96873  Biso   1.000  O
  O38      1.0000 0.40374  0.25000  0.03127  Biso   1.000  O
  O39      1.0000 0.40374  0.75000  0.53127  Biso   1.000  O
  O40      1.0000 0.40374  0.25000  0.46873  Biso   1.000  O
