data_image0
_cell_length_a       15.1811
_cell_length_b       5.55277
_cell_length_c       5.55277
_cell_angle_alpha    90
_cell_angle_beta     90
_cell_angle_gamma    90

_symmetry_space_group_name_H-M    "P 1"
_symmetry_int_tables_number       1

loop_
  _symmetry_equiv_pos_as_xyz
  'x, y, z'

loop_
  _atom_site_label
  _atom_site_occupancy
  _atom_site_fract_x
  _atom_site_fract_y
  _atom_site_fract_z
  _atom_site_thermal_displace_type
  _atom_site_B_iso_or_equiv
  _atom_site_type_symbol
  K1       1.0000 0.50000  0.57528  0.57528  Biso   1.000  K
  K2       1.0000 0.50000  0.92472  0.92472  Biso   1.000  K
  Pb1      1.0000 0.85326  0.47515  0.47515  Biso   1.000  Pb
  Pb2      1.0000 0.85326  0.02485  0.02485  Biso   1.000  Pb
  Pb3      1.0000 0.14674  0.02485  0.02485  Biso   1.000  Pb
  Pb4      1.0000 0.14674  0.47515  0.47515  Biso   1.000  Pb
  Nb1      1.0000 0.00000  0.49938  0.00062  Biso   1.000  Nb
  Nb2      1.0000 0.00000  0.00062  0.49938  Biso   1.000  Nb
  Ta1      1.0000 0.71284  0.51164  0.98836  Biso   1.000  Ta
  Ta2      1.0000 0.71284  0.98836  0.51164  Biso   1.000  Ta
  Ta3      1.0000 0.28716  0.51164  0.98836  Biso   1.000  Ta
  Ta4      1.0000 0.28716  0.98836  0.51164  Biso   1.000  Ta
  O1       1.0000 0.00000  0.70000  0.30000  Biso   1.000  O
  O2       1.0000 0.00000  0.30000  0.70000  Biso   1.000  O
  O3       1.0000 0.00000  0.80000  0.80000  Biso   1.000  O
  O4       1.0000 0.00000  0.20000  0.20000  Biso   1.000  O
  O5       1.0000 0.86976  0.48845  0.01155  Biso   1.000  O
  O6       1.0000 0.86976  0.01155  0.48845  Biso   1.000  O
  O7       1.0000 0.13024  0.48845  0.01155  Biso   1.000  O
  O8       1.0000 0.13024  0.01155  0.48845  Biso   1.000  O
  O9       1.0000 0.73764  0.75069  0.24931  Biso   1.000  O
  O10      1.0000 0.73764  0.24931  0.75069  Biso   1.000  O
  O11      1.0000 0.26236  0.24931  0.75069  Biso   1.000  O
  O12      1.0000 0.26236  0.75069  0.24931  Biso   1.000  O
  O13      1.0000 0.22759  0.74931  0.74931  Biso   1.000  O
  O14      1.0000 0.29713  0.25069  0.25069  Biso   1.000  O
  O15      1.0000 0.77241  0.74931  0.74931  Biso   1.000  O
  O16      1.0000 0.70287  0.25069  0.25069  Biso   1.000  O
  O17      1.0000 0.59626  0.53127  0.96873  Biso   1.000  O
  O18      1.0000 0.59626  0.96873  0.53127  Biso   1.000  O
  O19      1.0000 0.40374  0.53127  0.96873  Biso   1.000  O
  O20      1.0000 0.40374  0.96873  0.53127  Biso   1.000  O
