data_image0
_cell_length_a       16.1647
_cell_length_b       16.1647
_cell_length_c       16.1647
_cell_angle_alpha    151.885
_cell_angle_beta     40.1819
_cell_angle_gamma    151.885

_symmetry_space_group_name_H-M    "P 1"
_symmetry_int_tables_number       1

loop_
  _symmetry_equiv_pos_as_xyz
  'x, y, z'

loop_
  _atom_site_label
  _atom_site_occupancy
  _atom_site_fract_x
  _atom_site_fract_y
  _atom_site_fract_z
  _atom_site_thermal_displace_type
  _atom_site_B_iso_or_equiv
  _atom_site_type_symbol
  K1       1.0000 0.64648  0.89648  0.75000  Biso   1.000  K
  K2       1.0000 0.85352  0.60352  0.25000  Biso   1.000  K
  K3       1.0000 0.35352  0.10352  0.25000  Biso   1.000  K
  K4       1.0000 0.14648  0.39648  0.75000  Biso   1.000  K
  Pb1      1.0000 0.79290  0.24851  0.54439  Biso   1.000  Pb
  Pb2      1.0000 0.35384  0.25149  0.10235  Biso   1.000  Pb
  Pb3      1.0000 0.79588  0.75149  0.04439  Biso   1.000  Pb
  Pb4      1.0000 0.35086  0.74851  0.60235  Biso   1.000  Pb
  Pb5      1.0000 0.64616  0.74851  0.89765  Biso   1.000  Pb
  Pb6      1.0000 0.20710  0.75149  0.45561  Biso   1.000  Pb
  Pb7      1.0000 0.64914  0.25149  0.39765  Biso   1.000  Pb
  Pb8      1.0000 0.20412  0.24851  0.95561  Biso   1.000  Pb
  Nb1      1.0000 1.00000  0.75000  0.75000  Biso   1.000  Nb
  Nb2      1.0000 0.50000  0.75000  0.25000  Biso   1.000  Nb
  Nb3      1.0000 0.00000  0.25000  0.25000  Biso   1.000  Nb
  Nb4      1.0000 0.50000  0.25000  0.75000  Biso   1.000  Nb
  Ta1      1.0000 0.13795  0.74437  0.89358  Biso   1.000  Ta
  Ta2      1.0000 0.64921  0.75563  0.39358  Biso   1.000  Ta
  Ta3      1.0000 0.13795  0.24437  0.39358  Biso   1.000  Ta
  Ta4      1.0000 0.64921  0.25563  0.89358  Biso   1.000  Ta
  Ta5      1.0000 0.86205  0.75563  0.60642  Biso   1.000  Ta
  Ta6      1.0000 0.35079  0.74437  0.10642  Biso   1.000  Ta
  Ta7      1.0000 0.86205  0.25563  0.10642  Biso   1.000  Ta
  Ta8      1.0000 0.35079  0.24437  0.60642  Biso   1.000  Ta
  O1       1.0000 0.00000  0.50000  0.50000  Biso   1.000  O
  O2       1.0000 0.50000  0.50000  0.00000  Biso   1.000  O
  O3       1.0000 0.00000  0.00000  0.00000  Biso   1.000  O
  O4       1.0000 0.50000  0.00000  0.50000  Biso   1.000  O
  O5       1.0000 0.03480  0.00000  0.53480  Biso   1.000  O
  O6       1.0000 0.96520  0.00000  0.46520  Biso   1.000  O
  O7       1.0000 0.03480  0.50000  0.03480  Biso   1.000  O
  O8       1.0000 0.96520  0.50000  0.96520  Biso   1.000  O
  O9       1.0000 0.23306  0.91794  0.81512  Biso   1.000  O
  O10      1.0000 0.39718  0.58206  0.31512  Biso   1.000  O
  O11      1.0000 0.23306  0.41794  0.31512  Biso   1.000  O
  O12      1.0000 0.39718  0.08206  0.81512  Biso   1.000  O
  O13      1.0000 0.76694  0.58206  0.68488  Biso   1.000  O
  O14      1.0000 0.60282  0.91794  0.18488  Biso   1.000  O
  O15      1.0000 0.76694  0.08206  0.18488  Biso   1.000  O
  O16      1.0000 0.60282  0.41794  0.68488  Biso   1.000  O
  O17      1.0000 0.11261  0.48143  0.63118  Biso   1.000  O
  O18      1.0000 0.64975  0.51857  0.13118  Biso   1.000  O
  O19      1.0000 0.10869  0.97751  0.13118  Biso   1.000  O
  O20      1.0000 0.65367  0.02249  0.63118  Biso   1.000  O
  O21      1.0000 0.89131  0.02249  0.86882  Biso   1.000  O
  O22      1.0000 0.34633  0.97751  0.36882  Biso   1.000  O
  O23      1.0000 0.88739  0.51857  0.36882  Biso   1.000  O
  O24      1.0000 0.35025  0.48143  0.86882  Biso   1.000  O
  O25      1.0000 0.21160  0.00000  0.71160  Biso   1.000  O
  O26      1.0000 0.52604  0.00000  0.02604  Biso   1.000  O
  O27      1.0000 0.21160  0.50000  0.21160  Biso   1.000  O
  O28      1.0000 0.52604  0.50000  0.52604  Biso   1.000  O
  O29      1.0000 0.47396  0.00000  0.97396  Biso   1.000  O
  O30      1.0000 0.78840  0.00000  0.28840  Biso   1.000  O
  O31      1.0000 0.47396  0.50000  0.47396  Biso   1.000  O
  O32      1.0000 0.78840  0.50000  0.78840  Biso   1.000  O
  O33      1.0000 0.16689  0.71502  0.95187  Biso   1.000  O
  O34      1.0000 0.73685  0.78498  0.45187  Biso   1.000  O
  O35      1.0000 0.16689  0.21502  0.45187  Biso   1.000  O
  O36      1.0000 0.73685  0.28498  0.95187  Biso   1.000  O
  O37      1.0000 0.83311  0.78498  0.54813  Biso   1.000  O
  O38      1.0000 0.26315  0.71502  0.04813  Biso   1.000  O
  O39      1.0000 0.83311  0.28498  0.04813  Biso   1.000  O
  O40      1.0000 0.26315  0.21502  0.54813  Biso   1.000  O
