data_image0
_cell_length_a       3.9264
_cell_length_b       15.6806
_cell_length_c       15.6806
_cell_angle_alpha    150.998
_cell_angle_beta     90
_cell_angle_gamma    90

_symmetry_space_group_name_H-M    "P 1"
_symmetry_int_tables_number       1

loop_
  _symmetry_equiv_pos_as_xyz
  'x, y, z'

loop_
  _atom_site_label
  _atom_site_occupancy
  _atom_site_fract_x
  _atom_site_fract_y
  _atom_site_fract_z
  _atom_site_thermal_displace_type
  _atom_site_B_iso_or_equiv
  _atom_site_type_symbol
  K1       1.0000 0.79297  0.50000  0.00000  Biso   1.000  K
  K2       1.0000 0.20703  0.00000  0.50000  Biso   1.000  K
  Pb1      1.0000 0.49701  0.23694  0.09020  Biso   1.000  Pb
  Pb2      1.0000 0.50299  0.73694  0.59020  Biso   1.000  Pb
  Pb3      1.0000 0.49701  0.59020  0.73694  Biso   1.000  Pb
  Pb4      1.0000 0.50299  0.09020  0.23694  Biso   1.000  Pb
  Nb1      1.0000 0.00000  0.91599  0.91599  Biso   1.000  Nb
  Nb2      1.0000 0.00000  0.41599  0.41599  Biso   1.000  Nb
  Ta1      1.0000 1.00000  0.20467  0.91751  Biso   1.000  Ta
  Ta2      1.0000 0.00000  0.70467  0.41751  Biso   1.000  Ta
  Ta3      1.0000 0.00000  0.91751  0.20467  Biso   1.000  Ta
  Ta4      1.0000 1.00000  0.41751  0.70467  Biso   1.000  Ta
  O1       1.0000 0.00000  0.34893  0.34893  Biso   1.000  O
  O2       1.0000 0.00000  0.84893  0.84893  Biso   1.000  O
  O3       1.0000 0.50000  0.20923  0.20923  Biso   1.000  O
  O4       1.0000 0.50000  0.70923  0.70923  Biso   1.000  O
  O5       1.0000 1.00000  0.18053  0.05029  Biso   1.000  O
  O6       1.0000 0.00000  0.68053  0.55029  Biso   1.000  O
  O7       1.0000 0.00000  0.05029  0.18053  Biso   1.000  O
  O8       1.0000 1.00000  0.55029  0.68053  Biso   1.000  O
  O9       1.0000 0.00393  0.42982  0.16746  Biso   1.000  O
  O10      1.0000 0.99607  0.92982  0.66746  Biso   1.000  O
  O11      1.0000 0.00393  0.66746  0.92982  Biso   1.000  O
  O12      1.0000 0.99607  0.16746  0.42982  Biso   1.000  O
  O13      1.0000 0.50000  0.93158  0.19394  Biso   1.000  O
  O14      1.0000 0.50000  0.43158  0.69394  Biso   1.000  O
  O15      1.0000 0.50000  0.19394  0.93158  Biso   1.000  O
  O16      1.0000 0.50000  0.69394  0.43158  Biso   1.000  O
  O17      1.0000 1.00000  0.23886  0.83512  Biso   1.000  O
  O18      1.0000 0.00000  0.73886  0.33512  Biso   1.000  O
  O19      1.0000 0.00000  0.83512  0.23886  Biso   1.000  O
  O20      1.0000 1.00000  0.33512  0.73886  Biso   1.000  O
