data_image0
_cell_length_a       15.6806
_cell_length_b       15.6806
_cell_length_c       7.8528
_cell_angle_alpha    90
_cell_angle_beta     90
_cell_angle_gamma    150.998

_symmetry_space_group_name_H-M    "P 1"
_symmetry_int_tables_number       1

loop_
  _symmetry_equiv_pos_as_xyz
  'x, y, z'

loop_
  _atom_site_label
  _atom_site_occupancy
  _atom_site_fract_x
  _atom_site_fract_y
  _atom_site_fract_z
  _atom_site_thermal_displace_type
  _atom_site_B_iso_or_equiv
  _atom_site_type_symbol
  K1       1.0000 0.66582  0.66582  0.26934  Biso   1.000  K
  K2       1.0000 0.33418  0.33418  0.73066  Biso   1.000  K
  K3       1.0000 0.83418  0.83418  0.93769  Biso   1.000  K
  K4       1.0000 0.16582  0.16582  0.06231  Biso   1.000  K
  Pb1      1.0000 0.99686  0.64360  0.07172  Biso   1.000  Pb
  Pb2      1.0000 0.35640  0.00314  0.92828  Biso   1.000  Pb
  Pb3      1.0000 0.85640  0.50314  0.43127  Biso   1.000  Pb
  Pb4      1.0000 0.49686  0.14360  0.56873  Biso   1.000  Pb
  Pb5      1.0000 0.64360  0.99686  0.07172  Biso   1.000  Pb
  Pb6      1.0000 0.00314  0.35640  0.92828  Biso   1.000  Pb
  Pb7      1.0000 0.50314  0.85640  0.43127  Biso   1.000  Pb
  Pb8      1.0000 0.14360  0.49686  0.56873  Biso   1.000  Pb
  Nb1      1.0000 0.75000  0.25000  0.75000  Biso   1.000  Nb
  Nb2      1.0000 0.25000  0.75000  0.75000  Biso   1.000  Nb
  Nb3      1.0000 0.75000  0.25000  0.25000  Biso   1.000  Nb
  Nb4      1.0000 0.25000  0.75000  0.25000  Biso   1.000  Nb
  Ta1      1.0000 0.62257  0.40973  0.76615  Biso   1.000  Ta
  Ta2      1.0000 0.09027  0.87743  0.73385  Biso   1.000  Ta
  Ta3      1.0000 0.59027  0.37743  0.23385  Biso   1.000  Ta
  Ta4      1.0000 0.12257  0.90973  0.26615  Biso   1.000  Ta
  Ta5      1.0000 0.87743  0.09027  0.73385  Biso   1.000  Ta
  Ta6      1.0000 0.40973  0.62257  0.76615  Biso   1.000  Ta
  Ta7      1.0000 0.90973  0.12257  0.26615  Biso   1.000  Ta
  Ta8      1.0000 0.37743  0.59027  0.23385  Biso   1.000  Ta
  O1       1.0000 0.89723  0.60277  0.75000  Biso   1.000  O
  O2       1.0000 0.60277  0.89723  0.75000  Biso   1.000  O
  O3       1.0000 0.10277  0.39723  0.25000  Biso   1.000  O
  O4       1.0000 0.39723  0.10277  0.25000  Biso   1.000  O
  O5       1.0000 0.85277  0.14723  0.50000  Biso   1.000  O
  O6       1.0000 0.14723  0.85277  0.50000  Biso   1.000  O
  O7       1.0000 0.64723  0.35277  0.00000  Biso   1.000  O
  O8       1.0000 0.35277  0.64723  0.00000  Biso   1.000  O
  O9       1.0000 0.58695  0.21719  0.65207  Biso   1.000  O
  O10      1.0000 0.28281  0.91305  0.84793  Biso   1.000  O
  O11      1.0000 0.78281  0.41305  0.34793  Biso   1.000  O
  O12      1.0000 0.08695  0.71719  0.15207  Biso   1.000  O
  O13      1.0000 0.91305  0.28281  0.84793  Biso   1.000  O
  O14      1.0000 0.21719  0.58695  0.65207  Biso   1.000  O
  O15      1.0000 0.71719  0.08695  0.15207  Biso   1.000  O
  O16      1.0000 0.41305  0.78281  0.34793  Biso   1.000  O
  O17      1.0000 0.92847  0.57153  0.74804  Biso   1.000  O
  O18      1.0000 0.30917  0.19083  0.75196  Biso   1.000  O
  O19      1.0000 0.80917  0.69083  0.24804  Biso   1.000  O
  O20      1.0000 0.42847  0.07153  0.25196  Biso   1.000  O
  O21      1.0000 0.57153  0.92847  0.74804  Biso   1.000  O
  O22      1.0000 0.19083  0.30917  0.75196  Biso   1.000  O
  O23      1.0000 0.69083  0.80917  0.24804  Biso   1.000  O
  O24      1.0000 0.07153  0.42847  0.25196  Biso   1.000  O
  O25      1.0000 0.82153  0.17847  0.50000  Biso   1.000  O
  O26      1.0000 0.44083  0.55917  0.50000  Biso   1.000  O
  O27      1.0000 0.94083  0.05917  0.00000  Biso   1.000  O
  O28      1.0000 0.32153  0.67847  0.00000  Biso   1.000  O
  O29      1.0000 0.55917  0.44083  0.50000  Biso   1.000  O
  O30      1.0000 0.17847  0.82153  0.50000  Biso   1.000  O
  O31      1.0000 0.67847  0.32153  0.00000  Biso   1.000  O
  O32      1.0000 0.05917  0.94083  0.00000  Biso   1.000  O
  O33      1.0000 0.61197  0.51571  0.81384  Biso   1.000  O
  O34      1.0000 0.98429  0.88803  0.68616  Biso   1.000  O
  O35      1.0000 0.48429  0.38803  0.18616  Biso   1.000  O
  O36      1.0000 0.11197  0.01571  0.31384  Biso   1.000  O
  O37      1.0000 0.88803  0.98429  0.68616  Biso   1.000  O
  O38      1.0000 0.51571  0.61197  0.81384  Biso   1.000  O
  O39      1.0000 0.01571  0.11197  0.31384  Biso   1.000  O
  O40      1.0000 0.38803  0.48429  0.18616  Biso   1.000  O
