data_image0
_cell_length_a       16.1647
_cell_length_b       16.1647
_cell_length_c       16.1647
_cell_angle_alpha    151.885
_cell_angle_beta     40.1819
_cell_angle_gamma    151.885

_symmetry_space_group_name_H-M    "P 1"
_symmetry_int_tables_number       1

loop_
  _symmetry_equiv_pos_as_xyz
  'x, y, z'

loop_
  _atom_site_label
  _atom_site_occupancy
  _atom_site_fract_x
  _atom_site_fract_y
  _atom_site_fract_z
  _atom_site_thermal_displace_type
  _atom_site_B_iso_or_equiv
  _atom_site_type_symbol
  K1       1.0000 0.04528  0.85352  0.89880  Biso   1.000  K
  K2       1.0000 0.95472  0.14648  0.10120  Biso   1.000  K
  K3       1.0000 0.54528  0.64648  0.19176  Biso   1.000  K
  K4       1.0000 0.45472  0.35352  0.80824  Biso   1.000  K
  Pb1      1.0000 0.59052  0.50149  0.09201  Biso   1.000  Pb
  Pb2      1.0000 0.05622  0.49851  0.55473  Biso   1.000  Pb
  Pb3      1.0000 0.09052  0.99851  0.08902  Biso   1.000  Pb
  Pb4      1.0000 0.55622  0.00149  0.55772  Biso   1.000  Pb
  Pb5      1.0000 0.90948  0.00149  0.91098  Biso   1.000  Pb
  Pb6      1.0000 0.44378  0.99851  0.44228  Biso   1.000  Pb
  Pb7      1.0000 0.40948  0.49851  0.90799  Biso   1.000  Pb
  Pb8      1.0000 0.94378  0.50149  0.44527  Biso   1.000  Pb
  Nb1      1.0000 0.75000  0.50895  0.75895  Biso   1.000  Nb
  Nb2      1.0000 0.25000  0.49105  0.24105  Biso   1.000  Nb
  Nb3      1.0000 0.25000  0.00895  0.75895  Biso   1.000  Nb
  Nb4      1.0000 0.75000  0.99105  0.24105  Biso   1.000  Nb
  Ta1      1.0000 0.89358  0.47369  0.86727  Biso   1.000  Ta
  Ta2      1.0000 0.39358  0.52631  0.41989  Biso   1.000  Ta
  Ta3      1.0000 0.39358  0.97369  0.86727  Biso   1.000  Ta
  Ta4      1.0000 0.89358  0.02631  0.41989  Biso   1.000  Ta
  Ta5      1.0000 0.60642  0.47369  0.58011  Biso   1.000  Ta
  Ta6      1.0000 0.10642  0.52631  0.13273  Biso   1.000  Ta
  Ta7      1.0000 0.10642  0.97369  0.58011  Biso   1.000  Ta
  Ta8      1.0000 0.60642  0.02631  0.13273  Biso   1.000  Ta
  O1       1.0000 0.50000  0.24631  0.74631  Biso   1.000  O
  O2       1.0000 0.00000  0.25369  0.25369  Biso   1.000  O
  O3       1.0000 0.00000  0.74631  0.74631  Biso   1.000  O
  O4       1.0000 0.50000  0.75369  0.25369  Biso   1.000  O
  O5       1.0000 0.75000  0.25000  0.50000  Biso   1.000  O
  O6       1.0000 0.25000  0.25000  0.00000  Biso   1.000  O
  O7       1.0000 0.25000  0.75000  0.50000  Biso   1.000  O
  O8       1.0000 0.75000  0.75000  0.00000  Biso   1.000  O
  O9       1.0000 0.81512  0.53000  0.84512  Biso   1.000  O
  O10      1.0000 0.31512  0.47000  0.28512  Biso   1.000  O
  O11      1.0000 0.31512  0.03000  0.84512  Biso   1.000  O
  O12      1.0000 0.81512  0.97000  0.28512  Biso   1.000  O
  O13      1.0000 0.68488  0.53000  0.71488  Biso   1.000  O
  O14      1.0000 0.18488  0.47000  0.15488  Biso   1.000  O
  O15      1.0000 0.18488  0.03000  0.71488  Biso   1.000  O
  O16      1.0000 0.68488  0.97000  0.15488  Biso   1.000  O
  O17      1.0000 0.63118  0.24120  0.87238  Biso   1.000  O
  O18      1.0000 0.13118  0.25880  0.38998  Biso   1.000  O
  O19      1.0000 0.13118  0.74513  0.87631  Biso   1.000  O
  O20      1.0000 0.63118  0.75487  0.38605  Biso   1.000  O
  O21      1.0000 0.86882  0.74120  0.61002  Biso   1.000  O
  O22      1.0000 0.36882  0.75880  0.12762  Biso   1.000  O
  O23      1.0000 0.36882  0.24513  0.61395  Biso   1.000  O
  O24      1.0000 0.86882  0.25487  0.12369  Biso   1.000  O
  O25      1.0000 0.68133  0.25000  0.43133  Biso   1.000  O
  O26      1.0000 0.05631  0.25000  0.80631  Biso   1.000  O
  O27      1.0000 0.18133  0.75000  0.43133  Biso   1.000  O
  O28      1.0000 0.55631  0.75000  0.80631  Biso   1.000  O
  O29      1.0000 0.81867  0.25000  0.56867  Biso   1.000  O
  O30      1.0000 0.44369  0.25000  0.19369  Biso   1.000  O
  O31      1.0000 0.31867  0.75000  0.56867  Biso   1.000  O
  O32      1.0000 0.94369  0.75000  0.19369  Biso   1.000  O
  O33      1.0000 0.95187  0.38605  0.83792  Biso   1.000  O
  O34      1.0000 0.45187  0.61395  0.56582  Biso   1.000  O
  O35      1.0000 0.45187  0.88605  0.83792  Biso   1.000  O
  O36      1.0000 0.95187  0.11395  0.56582  Biso   1.000  O
  O37      1.0000 0.54813  0.38605  0.43418  Biso   1.000  O
  O38      1.0000 0.04813  0.61395  0.16208  Biso   1.000  O
  O39      1.0000 0.04813  0.88605  0.43418  Biso   1.000  O
  O40      1.0000 0.54813  0.11395  0.16208  Biso   1.000  O
