data_image0
_cell_length_a       15.6806
_cell_length_b       15.6806
_cell_length_c       7.8528
_cell_angle_alpha    90
_cell_angle_beta     90
_cell_angle_gamma    150.998

_symmetry_space_group_name_H-M    "P 1"
_symmetry_int_tables_number       1

loop_
  _symmetry_equiv_pos_as_xyz
  'x, y, z'

loop_
  _atom_site_label
  _atom_site_occupancy
  _atom_site_fract_x
  _atom_site_fract_y
  _atom_site_fract_z
  _atom_site_thermal_displace_type
  _atom_site_B_iso_or_equiv
  _atom_site_type_symbol
  K1       1.0000 0.75000  0.75000  0.60352  Biso   1.000  K
  K2       1.0000 0.25000  0.25000  0.89648  Biso   1.000  K
  K3       1.0000 0.75000  0.75000  0.10352  Biso   1.000  K
  K4       1.0000 0.25000  0.25000  0.39648  Biso   1.000  K
  Pb1      1.0000 0.81415  0.46089  0.13902  Biso   1.000  Pb
  Pb2      1.0000 0.53911  0.18585  0.36098  Biso   1.000  Pb
  Pb3      1.0000 0.03911  0.68585  0.86397  Biso   1.000  Pb
  Pb4      1.0000 0.31415  0.96089  0.63603  Biso   1.000  Pb
  Pb5      1.0000 0.68585  0.03911  0.36397  Biso   1.000  Pb
  Pb6      1.0000 0.96089  0.31415  0.13603  Biso   1.000  Pb
  Pb7      1.0000 0.46089  0.81415  0.63902  Biso   1.000  Pb
  Pb8      1.0000 0.18585  0.53911  0.86098  Biso   1.000  Pb
  Nb1      1.0000 0.76057  0.26057  0.01057  Biso   1.000  Nb
  Nb2      1.0000 0.23943  0.73943  0.98943  Biso   1.000  Nb
  Nb3      1.0000 0.73943  0.23943  0.48943  Biso   1.000  Nb
  Nb4      1.0000 0.26057  0.76057  0.51057  Biso   1.000  Nb
  Ta1      1.0000 0.57518  0.36234  0.96876  Biso   1.000  Ta
  Ta2      1.0000 0.13766  0.92482  0.03124  Biso   1.000  Ta
  Ta3      1.0000 0.63766  0.42482  0.53124  Biso   1.000  Ta
  Ta4      1.0000 0.07518  0.86234  0.46876  Biso   1.000  Ta
  Ta5      1.0000 0.86234  0.07518  0.96876  Biso   1.000  Ta
  Ta6      1.0000 0.42482  0.63766  0.03124  Biso   1.000  Ta
  Ta7      1.0000 0.92482  0.13766  0.53124  Biso   1.000  Ta
  Ta8      1.0000 0.36234  0.57518  0.46876  Biso   1.000  Ta
  O1       1.0000 0.00000  0.50000  0.00000  Biso   1.000  O
  O2       1.0000 0.50000  0.00000  0.00000  Biso   1.000  O
  O3       1.0000 1.00000  0.50000  0.50000  Biso   1.000  O
  O4       1.0000 0.50000  0.00000  0.50000  Biso   1.000  O
  O5       1.0000 0.75000  0.25000  0.75000  Biso   1.000  O
  O6       1.0000 0.25000  0.75000  0.75000  Biso   1.000  O
  O7       1.0000 0.75000  0.25000  0.25000  Biso   1.000  O
  O8       1.0000 0.25000  0.75000  0.25000  Biso   1.000  O
  O9       1.0000 0.78209  0.41233  0.09721  Biso   1.000  O
  O10      1.0000 0.08767  0.71791  0.90279  Biso   1.000  O
  O11      1.0000 0.58767  0.21791  0.40279  Biso   1.000  O
  O12      1.0000 0.28209  0.91233  0.59721  Biso   1.000  O
  O13      1.0000 0.91233  0.28209  0.09721  Biso   1.000  O
  O14      1.0000 0.21791  0.58767  0.90279  Biso   1.000  O
  O15      1.0000 0.71791  0.08767  0.40279  Biso   1.000  O
  O16      1.0000 0.41233  0.78209  0.59721  Biso   1.000  O
  O17      1.0000 0.79693  0.70307  0.99804  Biso   1.000  O
  O18      1.0000 0.44071  0.05929  0.00196  Biso   1.000  O
  O19      1.0000 0.94071  0.55929  0.49804  Biso   1.000  O
  O20      1.0000 0.29693  0.20307  0.50196  Biso   1.000  O
  O21      1.0000 0.55929  0.94071  0.99804  Biso   1.000  O
  O22      1.0000 0.20307  0.29693  0.00196  Biso   1.000  O
  O23      1.0000 0.70307  0.79693  0.49804  Biso   1.000  O
  O24      1.0000 0.05929  0.44071  0.50196  Biso   1.000  O
  O25      1.0000 0.80929  0.19071  0.75000  Biso   1.000  O
  O26      1.0000 0.45307  0.54693  0.75000  Biso   1.000  O
  O27      1.0000 0.95307  0.04693  0.25000  Biso   1.000  O
  O28      1.0000 0.30929  0.69071  0.25000  Biso   1.000  O
  O29      1.0000 0.69071  0.30929  0.75000  Biso   1.000  O
  O30      1.0000 0.04693  0.95307  0.75000  Biso   1.000  O
  O31      1.0000 0.54693  0.45307  0.25000  Biso   1.000  O
  O32      1.0000 0.19071  0.80929  0.25000  Biso   1.000  O
  O33      1.0000 0.49389  0.39763  0.94576  Biso   1.000  O
  O34      1.0000 0.10237  0.00611  0.05424  Biso   1.000  O
  O35      1.0000 0.60237  0.50611  0.55424  Biso   1.000  O
  O36      1.0000 0.99389  0.89763  0.44576  Biso   1.000  O
  O37      1.0000 0.89763  0.99389  0.94576  Biso   1.000  O
  O38      1.0000 0.50611  0.60237  0.05424  Biso   1.000  O
  O39      1.0000 0.00611  0.10237  0.55424  Biso   1.000  O
  O40      1.0000 0.39763  0.49389  0.44576  Biso   1.000  O
