data_image0
_cell_length_a       16.1647
_cell_length_b       7.8528
_cell_length_c       16.1647
_cell_angle_alpha    75.9423
_cell_angle_beta     28.1154
_cell_angle_gamma    75.9423

_symmetry_space_group_name_H-M    "P 1"
_symmetry_int_tables_number       1

loop_
  _symmetry_equiv_pos_as_xyz
  'x, y, z'

loop_
  _atom_site_label
  _atom_site_occupancy
  _atom_site_fract_x
  _atom_site_fract_y
  _atom_site_fract_z
  _atom_site_thermal_displace_type
  _atom_site_B_iso_or_equiv
  _atom_site_type_symbol
  K1       1.0000 0.07070  0.07070  0.92930  Biso   1.000  K
  K2       1.0000 0.42930  0.42930  0.57070  Biso   1.000  K
  K3       1.0000 0.92930  0.57070  0.07070  Biso   1.000  K
  K4       1.0000 0.57070  0.92930  0.42930  Biso   1.000  K
  Pb1      1.0000 0.81208  0.18852  0.81148  Biso   1.000  Pb
  Pb2      1.0000 0.33466  0.66474  0.33526  Biso   1.000  Pb
  Pb3      1.0000 0.82307  0.67693  0.82367  Biso   1.000  Pb
  Pb4      1.0000 0.32367  0.17633  0.32307  Biso   1.000  Pb
  Pb5      1.0000 0.67693  0.82307  0.67633  Biso   1.000  Pb
  Pb6      1.0000 0.17633  0.32367  0.17693  Biso   1.000  Pb
  Pb7      1.0000 0.66474  0.33466  0.66534  Biso   1.000  Pb
  Pb8      1.0000 0.18852  0.81208  0.18792  Biso   1.000  Pb
  Nb1      1.0000 0.50000  0.00000  0.00000  Biso   1.000  Nb
  Nb2      1.0000 1.00000  0.50000  0.50000  Biso   1.000  Nb
  Nb3      1.0000 0.50000  0.50000  0.00000  Biso   1.000  Nb
  Nb4      1.0000 0.00000  0.00000  0.50000  Biso   1.000  Nb
  Ta1      1.0000 0.64471  0.85755  0.14245  Biso   1.000  Ta
  Ta2      1.0000 0.14245  0.35529  0.64471  Biso   1.000  Ta
  Ta3      1.0000 0.64471  0.35529  0.14245  Biso   1.000  Ta
  Ta4      1.0000 0.14245  0.85755  0.64471  Biso   1.000  Ta
  Ta5      1.0000 0.35529  0.14245  0.85755  Biso   1.000  Ta
  Ta6      1.0000 0.85755  0.64471  0.35529  Biso   1.000  Ta
  Ta7      1.0000 0.35529  0.64471  0.85755  Biso   1.000  Ta
  Ta8      1.0000 0.85755  0.14245  0.35529  Biso   1.000  Ta
  O1       1.0000 0.54304  0.20696  0.04304  Biso   1.000  O
  O2       1.0000 0.95696  0.79304  0.45696  Biso   1.000  O
  O3       1.0000 0.45696  0.79304  0.95696  Biso   1.000  O
  O4       1.0000 0.04304  0.20696  0.54304  Biso   1.000  O
  O5       1.0000 0.20696  0.04304  0.20696  Biso   1.000  O
  O6       1.0000 0.79304  0.45696  0.79304  Biso   1.000  O
  O7       1.0000 0.20696  0.54304  0.20696  Biso   1.000  O
  O8       1.0000 0.79304  0.95696  0.79304  Biso   1.000  O
  O9       1.0000 0.53153  0.90129  0.09871  Biso   1.000  O
  O10      1.0000 0.09871  0.46847  0.53153  Biso   1.000  O
  O11      1.0000 0.53153  0.46847  0.09871  Biso   1.000  O
  O12      1.0000 0.09871  0.90129  0.53153  Biso   1.000  O
  O13      1.0000 0.46847  0.09871  0.90129  Biso   1.000  O
  O14      1.0000 0.90129  0.53153  0.46847  Biso   1.000  O
  O15      1.0000 0.46847  0.53153  0.90129  Biso   1.000  O
  O16      1.0000 0.90129  0.09871  0.46847  Biso   1.000  O
  O17      1.0000 0.61634  0.13738  0.10891  Biso   1.000  O
  O18      1.0000 0.14602  0.60026  0.65345  Biso   1.000  O
  O19      1.0000 0.65423  0.60026  0.14524  Biso   1.000  O
  O20      1.0000 0.10813  0.13738  0.61712  Biso   1.000  O
  O21      1.0000 0.38288  0.86262  0.89187  Biso   1.000  O
  O22      1.0000 0.85476  0.39974  0.34577  Biso   1.000  O
  O23      1.0000 0.34655  0.39974  0.85398  Biso   1.000  O
  O24      1.0000 0.89109  0.86262  0.38366  Biso   1.000  O
  O25      1.0000 0.13738  0.10813  0.13738  Biso   1.000  O
  O26      1.0000 0.60026  0.65423  0.60026  Biso   1.000  O
  O27      1.0000 0.13738  0.61634  0.13738  Biso   1.000  O
  O28      1.0000 0.60026  0.14602  0.60026  Biso   1.000  O
  O29      1.0000 0.39974  0.85476  0.39974  Biso   1.000  O
  O30      1.0000 0.86262  0.38288  0.86262  Biso   1.000  O
  O31      1.0000 0.39974  0.34655  0.39974  Biso   1.000  O
  O32      1.0000 0.86262  0.89109  0.86262  Biso   1.000  O
  O33      1.0000 0.70887  0.80513  0.19487  Biso   1.000  O
  O34      1.0000 0.19487  0.29113  0.70887  Biso   1.000  O
  O35      1.0000 0.70887  0.29113  0.19487  Biso   1.000  O
  O36      1.0000 0.19487  0.80513  0.70887  Biso   1.000  O
  O37      1.0000 0.29113  0.19487  0.80513  Biso   1.000  O
  O38      1.0000 0.80513  0.70887  0.29113  Biso   1.000  O
  O39      1.0000 0.29113  0.70887  0.80513  Biso   1.000  O
  O40      1.0000 0.80513  0.19487  0.29113  Biso   1.000  O
