data_image0
_cell_length_a       16.1647
_cell_length_b       16.1647
_cell_length_c       7.8528
_cell_angle_alpha    104.058
_cell_angle_beta     104.058
_cell_angle_gamma    139.818

_symmetry_space_group_name_H-M    "P 1"
_symmetry_int_tables_number       1

loop_
  _symmetry_equiv_pos_as_xyz
  'x, y, z'

loop_
  _atom_site_label
  _atom_site_occupancy
  _atom_site_fract_x
  _atom_site_fract_y
  _atom_site_fract_z
  _atom_site_thermal_displace_type
  _atom_site_B_iso_or_equiv
  _atom_site_type_symbol
  K1       1.0000 0.45828  0.45828  0.39648  Biso   1.000  K
  K2       1.0000 0.66531  0.66531  0.10352  Biso   1.000  K
  K3       1.0000 0.54172  0.54172  0.60352  Biso   1.000  K
  K4       1.0000 0.33469  0.33469  0.89648  Biso   1.000  K
  Pb1      1.0000 0.23727  0.88401  0.74851  Biso   1.000  Pb
  Pb2      1.0000 0.74025  0.38699  0.75149  Biso   1.000  Pb
  Pb3      1.0000 0.11599  0.76273  0.25149  Biso   1.000  Pb
  Pb4      1.0000 0.61301  0.25975  0.24851  Biso   1.000  Pb
  Pb5      1.0000 0.25975  0.61301  0.24851  Biso   1.000  Pb
  Pb6      1.0000 0.76273  0.11599  0.25149  Biso   1.000  Pb
  Pb7      1.0000 0.38699  0.74025  0.75149  Biso   1.000  Pb
  Pb8      1.0000 0.88401  0.23727  0.74851  Biso   1.000  Pb
  Nb1      1.0000 0.49844  0.99844  0.75000  Biso   1.000  Nb
  Nb2      1.0000 0.99844  0.49844  0.75000  Biso   1.000  Nb
  Nb3      1.0000 0.50156  0.00156  0.25000  Biso   1.000  Nb
  Nb4      1.0000 0.00156  0.50156  0.25000  Biso   1.000  Nb
  Ta1      1.0000 0.38552  0.17268  0.75000  Biso   1.000  Ta
  Ta2      1.0000 0.88552  0.67268  0.75000  Biso   1.000  Ta
  Ta3      1.0000 0.32732  0.11448  0.25000  Biso   1.000  Ta
  Ta4      1.0000 0.82732  0.61448  0.25000  Biso   1.000  Ta
  Ta5      1.0000 0.67268  0.88552  0.75000  Biso   1.000  Ta
  Ta6      1.0000 0.17268  0.38552  0.75000  Biso   1.000  Ta
  Ta7      1.0000 0.61448  0.82732  0.25000  Biso   1.000  Ta
  Ta8      1.0000 0.11448  0.32732  0.25000  Biso   1.000  Ta
  O1       1.0000 0.50000  0.00000  0.00000  Biso   1.000  O
  O2       1.0000 0.00000  0.50000  0.00000  Biso   1.000  O
  O3       1.0000 0.50000  0.00000  0.50000  Biso   1.000  O
  O4       1.0000 0.00000  0.50000  0.50000  Biso   1.000  O
  O5       1.0000 0.75000  0.25000  0.00000  Biso   1.000  O
  O6       1.0000 0.25000  0.75000  0.00000  Biso   1.000  O
  O7       1.0000 0.75000  0.25000  0.50000  Biso   1.000  O
  O8       1.0000 0.25000  0.75000  0.50000  Biso   1.000  O
  O9       1.0000 0.40601  0.03625  0.75000  Biso   1.000  O
  O10      1.0000 0.90601  0.53625  0.75000  Biso   1.000  O
  O11      1.0000 0.46375  0.09399  0.25000  Biso   1.000  O
  O12      1.0000 0.96375  0.59399  0.25000  Biso   1.000  O
  O13      1.0000 0.53625  0.90601  0.75000  Biso   1.000  O
  O14      1.0000 0.03625  0.40601  0.75000  Biso   1.000  O
  O15      1.0000 0.59399  0.96375  0.25000  Biso   1.000  O
  O16      1.0000 0.09399  0.46375  0.25000  Biso   1.000  O
  O17      1.0000 0.32733  0.17660  0.00196  Biso   1.000  O
  O18      1.0000 0.82340  0.67267  0.99804  Biso   1.000  O
  O19      1.0000 0.41031  0.08576  0.49804  Biso   1.000  O
  O20      1.0000 0.91424  0.58969  0.50196  Biso   1.000  O
  O21      1.0000 0.58969  0.91424  0.50196  Biso   1.000  O
  O22      1.0000 0.08576  0.41031  0.49804  Biso   1.000  O
  O23      1.0000 0.67267  0.82340  0.99804  Biso   1.000  O
  O24      1.0000 0.17660  0.32733  0.00196  Biso   1.000  O
  O25      1.0000 0.83772  0.16228  0.00000  Biso   1.000  O
  O26      1.0000 0.33772  0.66228  0.00000  Biso   1.000  O
  O27      1.0000 0.92464  0.07536  0.50000  Biso   1.000  O
  O28      1.0000 0.42464  0.57536  0.50000  Biso   1.000  O
  O29      1.0000 0.66228  0.33772  0.00000  Biso   1.000  O
  O30      1.0000 0.16228  0.83772  0.00000  Biso   1.000  O
  O31      1.0000 0.57536  0.42464  0.50000  Biso   1.000  O
  O32      1.0000 0.07536  0.92464  0.50000  Biso   1.000  O
  O33      1.0000 0.37631  0.28005  0.75000  Biso   1.000  O
  O34      1.0000 0.87631  0.78005  0.75000  Biso   1.000  O
  O35      1.0000 0.21995  0.12369  0.25000  Biso   1.000  O
  O36      1.0000 0.71995  0.62369  0.25000  Biso   1.000  O
  O37      1.0000 0.78005  0.87631  0.75000  Biso   1.000  O
  O38      1.0000 0.28005  0.37631  0.75000  Biso   1.000  O
  O39      1.0000 0.62369  0.71995  0.25000  Biso   1.000  O
  O40      1.0000 0.12369  0.21995  0.25000  Biso   1.000  O
