data_image0
_cell_length_a       16.1647
_cell_length_b       16.1647
_cell_length_c       7.8528
_cell_angle_alpha    104.058
_cell_angle_beta     104.058
_cell_angle_gamma    139.818

_symmetry_space_group_name_H-M    "P 1"
_symmetry_int_tables_number       1

loop_
  _symmetry_equiv_pos_as_xyz
  'x, y, z'

loop_
  _atom_site_label
  _atom_site_occupancy
  _atom_site_fract_x
  _atom_site_fract_y
  _atom_site_fract_z
  _atom_site_thermal_displace_type
  _atom_site_B_iso_or_equiv
  _atom_site_type_symbol
  K1       1.0000 0.50000  0.00000  0.50000  Biso   1.000  K
  K2       1.0000 0.00000  0.50000  0.50000  Biso   1.000  K
  K3       1.0000 0.50000  0.00000  0.00000  Biso   1.000  K
  K4       1.0000 0.00000  0.50000  0.00000  Biso   1.000  K
  Pb1      1.0000 0.66679  0.80194  0.50000  Biso   1.000  Pb
  Pb2      1.0000 0.15520  0.31353  0.50000  Biso   1.000  Pb
  Pb3      1.0000 0.68647  0.84480  0.00000  Biso   1.000  Pb
  Pb4      1.0000 0.19806  0.33321  1.00000  Biso   1.000  Pb
  Pb5      1.0000 0.80194  0.66679  0.00000  Biso   1.000  Pb
  Pb6      1.0000 0.31353  0.15520  0.00000  Biso   1.000  Pb
  Pb7      1.0000 0.84480  0.68647  0.50000  Biso   1.000  Pb
  Pb8      1.0000 0.33321  0.19806  0.50000  Biso   1.000  Pb
  Nb1      1.0000 0.00000  0.00000  0.50000  Biso   1.000  Nb
  Nb2      1.0000 0.50000  0.50000  0.50000  Biso   1.000  Nb
  Nb3      1.0000 0.00000  0.00000  0.00000  Biso   1.000  Nb
  Nb4      1.0000 0.50000  0.50000  0.00000  Biso   1.000  Nb
  Ta1      1.0000 0.85291  0.14007  0.50113  Biso   1.000  Ta
  Ta2      1.0000 0.35291  0.64007  0.49887  Biso   1.000  Ta
  Ta3      1.0000 0.85993  0.14709  0.99887  Biso   1.000  Ta
  Ta4      1.0000 0.35993  0.64709  0.00113  Biso   1.000  Ta
  Ta5      1.0000 0.14709  0.85993  0.49887  Biso   1.000  Ta
  Ta6      1.0000 0.64709  0.35993  0.50113  Biso   1.000  Ta
  Ta7      1.0000 0.14007  0.85291  0.00113  Biso   1.000  Ta
  Ta8      1.0000 0.64007  0.35291  0.99887  Biso   1.000  Ta
  O1       1.0000 0.93494  0.06506  0.75000  Biso   1.000  O
  O2       1.0000 0.52102  0.47898  0.75000  Biso   1.000  O
  O3       1.0000 0.06506  0.93494  0.25000  Biso   1.000  O
  O4       1.0000 0.47898  0.52102  0.25000  Biso   1.000  O
  O5       1.0000 0.27202  0.22798  0.75000  Biso   1.000  O
  O6       1.0000 0.77202  0.72798  0.75000  Biso   1.000  O
  O7       1.0000 0.22798  0.27202  0.25000  Biso   1.000  O
  O8       1.0000 0.72798  0.77202  0.25000  Biso   1.000  O
  O9       1.0000 0.95591  0.08615  0.46641  Biso   1.000  O
  O10      1.0000 0.45591  0.58615  0.53359  Biso   1.000  O
  O11      1.0000 0.91385  0.04409  0.03359  Biso   1.000  O
  O12      1.0000 0.41385  0.54409  0.96641  Biso   1.000  O
  O13      1.0000 0.04409  0.91385  0.53359  Biso   1.000  O
  O14      1.0000 0.54409  0.41385  0.46641  Biso   1.000  O
  O15      1.0000 0.08615  0.95591  0.96641  Biso   1.000  O
  O16      1.0000 0.58615  0.45591  0.03359  Biso   1.000  O
  O17      1.0000 0.89974  0.10026  0.75000  Biso   1.000  O
  O18      1.0000 0.36263  0.63737  0.75000  Biso   1.000  O
  O19      1.0000 0.83790  0.16210  0.25000  Biso   1.000  O
  O20      1.0000 0.37501  0.62499  0.25000  Biso   1.000  O
  O21      1.0000 0.10026  0.89974  0.25000  Biso   1.000  O
  O22      1.0000 0.63737  0.36263  0.25000  Biso   1.000  O
  O23      1.0000 0.16210  0.83790  0.75000  Biso   1.000  O
  O24      1.0000 0.62499  0.37501  0.75000  Biso   1.000  O
  O25      1.0000 0.36882  0.13118  0.74589  Biso   1.000  O
  O26      1.0000 0.86882  0.63118  0.75411  Biso   1.000  O
  O27      1.0000 0.39354  0.10646  0.25411  Biso   1.000  O
  O28      1.0000 0.89354  0.60646  0.24589  Biso   1.000  O
  O29      1.0000 0.10646  0.39354  0.75411  Biso   1.000  O
  O30      1.0000 0.60646  0.89354  0.74589  Biso   1.000  O
  O31      1.0000 0.13118  0.36882  0.24589  Biso   1.000  O
  O32      1.0000 0.63118  0.86882  0.25411  Biso   1.000  O
  O33      1.0000 0.78568  0.18942  0.50700  Biso   1.000  O
  O34      1.0000 0.28568  0.68942  0.49300  Biso   1.000  O
  O35      1.0000 0.81058  0.21432  0.99300  Biso   1.000  O
  O36      1.0000 0.31058  0.71432  0.00700  Biso   1.000  O
  O37      1.0000 0.21432  0.81058  0.49300  Biso   1.000  O
  O38      1.0000 0.71432  0.31058  0.50700  Biso   1.000  O
  O39      1.0000 0.18942  0.78568  0.00700  Biso   1.000  O
  O40      1.0000 0.68942  0.28568  0.99300  Biso   1.000  O
