data_image0
_cell_length_a       15.6806
_cell_length_b       15.6806
_cell_length_c       7.8528
_cell_angle_alpha    90
_cell_angle_beta     90
_cell_angle_gamma    150.998

_symmetry_space_group_name_H-M    "P 1"
_symmetry_int_tables_number       1

loop_
  _symmetry_equiv_pos_as_xyz
  'x, y, z'

loop_
  _atom_site_label
  _atom_site_occupancy
  _atom_site_fract_x
  _atom_site_fract_y
  _atom_site_fract_z
  _atom_site_thermal_displace_type
  _atom_site_B_iso_or_equiv
  _atom_site_type_symbol
  K1       1.0000 0.48316  0.48316  0.73316  Biso   1.000  K
  K2       1.0000 0.01684  0.01684  0.76684  Biso   1.000  K
  K3       1.0000 0.51684  0.51684  0.26684  Biso   1.000  K
  K4       1.0000 0.98316  0.98316  0.23316  Biso   1.000  K
  Pb1      1.0000 0.69647  0.33162  0.76405  Biso   1.000  Pb
  Pb2      1.0000 0.15679  0.81512  0.73595  Biso   1.000  Pb
  Pb3      1.0000 0.66838  0.30353  0.23595  Biso   1.000  Pb
  Pb4      1.0000 0.18488  0.84321  0.26405  Biso   1.000  Pb
  Pb5      1.0000 0.33162  0.69647  0.76405  Biso   1.000  Pb
  Pb6      1.0000 0.81512  0.15679  0.73595  Biso   1.000  Pb
  Pb7      1.0000 0.30353  0.66838  0.23595  Biso   1.000  Pb
  Pb8      1.0000 0.84321  0.18488  0.26405  Biso   1.000  Pb
  Nb1      1.0000 0.50000  0.00000  0.50000  Biso   1.000  Nb
  Nb2      1.0000 1.00000  0.50000  0.50000  Biso   1.000  Nb
  Nb3      1.0000 0.50000  0.00000  0.00000  Biso   1.000  Nb
  Nb4      1.0000 0.00000  0.50000  0.00000  Biso   1.000  Nb
  Ta1      1.0000 0.36078  0.14794  0.50323  Biso   1.000  Ta
  Ta2      1.0000 0.85206  0.63922  0.49677  Biso   1.000  Ta
  Ta3      1.0000 0.35432  0.14148  0.99677  Biso   1.000  Ta
  Ta4      1.0000 0.85852  0.64568  0.00323  Biso   1.000  Ta
  Ta5      1.0000 0.63922  0.85206  0.49677  Biso   1.000  Ta
  Ta6      1.0000 0.14794  0.36078  0.50323  Biso   1.000  Ta
  Ta7      1.0000 0.64568  0.85852  0.00323  Biso   1.000  Ta
  Ta8      1.0000 0.14148  0.35432  0.99677  Biso   1.000  Ta
  O1       1.0000 0.68641  0.31359  0.50000  Biso   1.000  O
  O2       1.0000 0.31359  0.68641  0.50000  Biso   1.000  O
  O3       1.0000 0.72752  0.27248  0.00000  Biso   1.000  O
  O4       1.0000 0.27248  0.72752  0.00000  Biso   1.000  O
  O5       1.0000 0.52055  0.97945  0.25000  Biso   1.000  O
  O6       1.0000 0.97945  0.52055  0.25000  Biso   1.000  O
  O7       1.0000 0.47945  0.02055  0.75000  Biso   1.000  O
  O8       1.0000 0.02055  0.47945  0.75000  Biso   1.000  O
  O9       1.0000 0.38171  0.01195  0.48041  Biso   1.000  O
  O10      1.0000 0.98805  0.61829  0.51959  Biso   1.000  O
  O11      1.0000 0.42088  0.05112  0.01959  Biso   1.000  O
  O12      1.0000 0.94888  0.57912  0.98041  Biso   1.000  O
  O13      1.0000 0.61829  0.98805  0.51959  Biso   1.000  O
  O14      1.0000 0.01195  0.38171  0.48041  Biso   1.000  O
  O15      1.0000 0.57912  0.94888  0.98041  Biso   1.000  O
  O16      1.0000 0.05112  0.42088  0.01959  Biso   1.000  O
  O17      1.0000 0.64931  0.35069  0.50000  Biso   1.000  O
  O18      1.0000 0.08833  0.91167  0.50000  Biso   1.000  O
  O19      1.0000 0.62544  0.37456  0.00000  Biso   1.000  O
  O20      1.0000 0.11220  0.88780  0.00000  Biso   1.000  O
  O21      1.0000 0.35069  0.64931  0.50000  Biso   1.000  O
  O22      1.0000 0.91167  0.08833  0.50000  Biso   1.000  O
  O23      1.0000 0.37456  0.62544  0.00000  Biso   1.000  O
  O24      1.0000 0.88780  0.11220  0.00000  Biso   1.000  O
  O25      1.0000 0.61514  0.87664  0.25000  Biso   1.000  O
  O26      1.0000 0.14722  0.36100  0.25000  Biso   1.000  O
  O27      1.0000 0.63900  0.85278  0.75000  Biso   1.000  O
  O28      1.0000 0.12336  0.38486  0.75000  Biso   1.000  O
  O29      1.0000 0.36100  0.14722  0.25000  Biso   1.000  O
  O30      1.0000 0.87664  0.61514  0.25000  Biso   1.000  O
  O31      1.0000 0.38486  0.12336  0.75000  Biso   1.000  O
  O32      1.0000 0.85278  0.63900  0.75000  Biso   1.000  O
  O33      1.0000 0.31790  0.22164  0.51277  Biso   1.000  O
  O34      1.0000 0.77836  0.68210  0.48723  Biso   1.000  O
  O35      1.0000 0.29236  0.19610  0.98723  Biso   1.000  O
  O36      1.0000 0.80390  0.70764  0.01277  Biso   1.000  O
  O37      1.0000 0.68210  0.77836  0.48723  Biso   1.000  O
  O38      1.0000 0.22164  0.31790  0.51277  Biso   1.000  O
  O39      1.0000 0.70764  0.80390  0.01277  Biso   1.000  O
  O40      1.0000 0.19610  0.29236  0.98723  Biso   1.000  O
