data_image0
_cell_length_a       7.8528
_cell_length_b       7.8528
_cell_length_c       16.1647
_cell_angle_alpha    104.058
_cell_angle_beta     104.058
_cell_angle_gamma    90

_symmetry_space_group_name_H-M    "P 1"
_symmetry_int_tables_number       1

loop_
  _symmetry_equiv_pos_as_xyz
  'x, y, z'

loop_
  _atom_site_label
  _atom_site_occupancy
  _atom_site_fract_x
  _atom_site_fract_y
  _atom_site_fract_z
  _atom_site_thermal_displace_type
  _atom_site_B_iso_or_equiv
  _atom_site_type_symbol
  K1       1.0000 0.00000  0.00000  0.50000  Biso   1.000  K
  K2       1.0000 0.50000  0.50000  0.50000  Biso   1.000  K
  K3       1.0000 0.50000  0.00000  0.50000  Biso   1.000  K
  K4       1.0000 0.00000  0.50000  0.50000  Biso   1.000  K
  Pb1      1.0000 0.79614  0.79614  0.12356  Biso   1.000  Pb
  Pb2      1.0000 0.31932  0.31932  0.16992  Biso   1.000  Pb
  Pb3      1.0000 0.33901  0.83901  0.14674  Biso   1.000  Pb
  Pb4      1.0000 0.83901  0.33901  0.14674  Biso   1.000  Pb
  Pb5      1.0000 0.16099  0.66099  0.85326  Biso   1.000  Pb
  Pb6      1.0000 0.66099  0.16099  0.85326  Biso   1.000  Pb
  Pb7      1.0000 0.68068  0.68068  0.83008  Biso   1.000  Pb
  Pb8      1.0000 0.20386  0.20386  0.87644  Biso   1.000  Pb
  Nb1      1.0000 0.50000  0.00000  0.00000  Biso   1.000  Nb
  Nb2      1.0000 0.00000  0.50000  0.00000  Biso   1.000  Nb
  Nb3      1.0000 0.00000  0.00000  0.00000  Biso   1.000  Nb
  Nb4      1.0000 0.50000  0.50000  0.00000  Biso   1.000  Nb
  Ta1      1.0000 0.64822  0.14596  0.28716  Biso   1.000  Ta
  Ta2      1.0000 0.14596  0.64822  0.28716  Biso   1.000  Ta
  Ta3      1.0000 0.13894  0.13894  0.28716  Biso   1.000  Ta
  Ta4      1.0000 0.64120  0.64120  0.28716  Biso   1.000  Ta
  Ta5      1.0000 0.35178  0.85404  0.71284  Biso   1.000  Ta
  Ta6      1.0000 0.85404  0.35178  0.71284  Biso   1.000  Ta
  Ta7      1.0000 0.86106  0.86106  0.71284  Biso   1.000  Ta
  Ta8      1.0000 0.35880  0.35880  0.71284  Biso   1.000  Ta
  O1       1.0000 0.81506  0.06506  0.13012  Biso   1.000  O
  O2       1.0000 0.22898  0.47898  0.95796  Biso   1.000  O
  O3       1.0000 0.18494  0.93494  0.86988  Biso   1.000  O
  O4       1.0000 0.77102  0.52102  0.04204  Biso   1.000  O
  O5       1.0000 0.47898  0.22898  0.95796  Biso   1.000  O
  O6       1.0000 0.06506  0.81506  0.13012  Biso   1.000  O
  O7       1.0000 0.93494  0.18494  0.86988  Biso   1.000  O
  O8       1.0000 0.52102  0.77102  0.04204  Biso   1.000  O
  O9       1.0000 0.51050  0.07767  0.13024  Biso   1.000  O
  O10      1.0000 0.07767  0.51050  0.13024  Biso   1.000  O
  O11      1.0000 0.11974  0.11974  0.13024  Biso   1.000  O
  O12      1.0000 0.55257  0.55257  0.13024  Biso   1.000  O
  O13      1.0000 0.48950  0.92233  0.86976  Biso   1.000  O
  O14      1.0000 0.92233  0.48950  0.86976  Biso   1.000  O
  O15      1.0000 0.88026  0.88026  0.86976  Biso   1.000  O
  O16      1.0000 0.44743  0.44743  0.86976  Biso   1.000  O
  O17      1.0000 0.85026  0.09616  0.20052  Biso   1.000  O
  O18      1.0000 0.38737  0.64148  0.27474  Biso   1.000  O
  O19      1.0000 0.41210  0.15799  0.32420  Biso   1.000  O
  O20      1.0000 0.87499  0.62909  0.24998  Biso   1.000  O
  O21      1.0000 0.14974  0.90384  0.79948  Biso   1.000  O
  O22      1.0000 0.61263  0.35852  0.72526  Biso   1.000  O
  O23      1.0000 0.58790  0.84201  0.67580  Biso   1.000  O
  O24      1.0000 0.12501  0.37091  0.75002  Biso   1.000  O
  O25      1.0000 0.37091  0.12501  0.75002  Biso   1.000  O
  O26      1.0000 0.84201  0.58790  0.67580  Biso   1.000  O
  O27      1.0000 0.90384  0.14974  0.79948  Biso   1.000  O
  O28      1.0000 0.35852  0.61263  0.72526  Biso   1.000  O
  O29      1.0000 0.64148  0.38737  0.27474  Biso   1.000  O
  O30      1.0000 0.09616  0.85026  0.20052  Biso   1.000  O
  O31      1.0000 0.15799  0.41210  0.32420  Biso   1.000  O
  O32      1.0000 0.62909  0.87499  0.24998  Biso   1.000  O
  O33      1.0000 0.72132  0.20732  0.40374  Biso   1.000  O
  O34      1.0000 0.20732  0.72132  0.40374  Biso   1.000  O
  O35      1.0000 0.18242  0.18242  0.40374  Biso   1.000  O
  O36      1.0000 0.69642  0.69642  0.40374  Biso   1.000  O
  O37      1.0000 0.27868  0.79268  0.59626  Biso   1.000  O
  O38      1.0000 0.79268  0.27868  0.59626  Biso   1.000  O
  O39      1.0000 0.81758  0.81758  0.59626  Biso   1.000  O
  O40      1.0000 0.30358  0.30358  0.59626  Biso   1.000  O
