data_image0
_cell_length_a       16.1647
_cell_length_b       16.1647
_cell_length_c       16.1647
_cell_angle_alpha    151.885
_cell_angle_beta     151.885
_cell_angle_gamma    40.1819

_symmetry_space_group_name_H-M    "P 1"
_symmetry_int_tables_number       1

loop_
  _symmetry_equiv_pos_as_xyz
  'x, y, z'

loop_
  _atom_site_label
  _atom_site_occupancy
  _atom_site_fract_x
  _atom_site_fract_y
  _atom_site_fract_z
  _atom_site_thermal_displace_type
  _atom_site_B_iso_or_equiv
  _atom_site_type_symbol
  K1       1.0000 0.50000  0.50000  0.00000  Biso   1.000  K
  K2       1.0000 0.00000  0.00000  0.00000  Biso   1.000  K
  K3       1.0000 0.50000  0.00000  0.50000  Biso   1.000  K
  K4       1.0000 0.00000  0.50000  0.50000  Biso   1.000  K
  Pb1      1.0000 0.68822  0.68822  0.00000  Biso   1.000  Pb
  Pb2      1.0000 0.16504  0.16504  0.00000  Biso   1.000  Pb
  Pb3      1.0000 0.67663  0.17663  0.50000  Biso   1.000  Pb
  Pb4      1.0000 0.17663  0.67663  0.50000  Biso   1.000  Pb
  Pb5      1.0000 0.82337  0.32337  0.50000  Biso   1.000  Pb
  Pb6      1.0000 0.32337  0.82337  0.50000  Biso   1.000  Pb
  Pb7      1.0000 0.83496  0.83496  0.00000  Biso   1.000  Pb
  Pb8      1.0000 0.31178  0.31178  0.00000  Biso   1.000  Pb
  Nb1      1.0000 0.00000  0.00000  0.50000  Biso   1.000  Nb
  Nb2      1.0000 0.50000  0.50000  0.50000  Biso   1.000  Nb
  Nb3      1.0000 0.00000  0.50000  0.00000  Biso   1.000  Nb
  Nb4      1.0000 0.50000  0.00000  0.00000  Biso   1.000  Nb
  Ta1      1.0000 0.85529  0.85529  0.49775  Biso   1.000  Ta
  Ta2      1.0000 0.35755  0.35755  0.50225  Biso   1.000  Ta
  Ta3      1.0000 0.85529  0.35755  0.00000  Biso   1.000  Ta
  Ta4      1.0000 0.35755  0.85529  0.00000  Biso   1.000  Ta
  Ta5      1.0000 0.14471  0.14471  0.50225  Biso   1.000  Ta
  Ta6      1.0000 0.64245  0.64245  0.49775  Biso   1.000  Ta
  Ta7      1.0000 0.14471  0.64245  0.00000  Biso   1.000  Ta
  Ta8      1.0000 0.64245  0.14471  0.00000  Biso   1.000  Ta
  O1       1.0000 0.90696  0.70696  0.20000  Biso   1.000  O
  O2       1.0000 0.49304  0.29304  0.20000  Biso   1.000  O
  O3       1.0000 0.09304  0.29304  0.80000  Biso   1.000  O
  O4       1.0000 0.50696  0.70696  0.80000  Biso   1.000  O
  O5       1.0000 0.29304  0.99304  0.70000  Biso   1.000  O
  O6       1.0000 0.70696  0.40696  0.70000  Biso   1.000  O
  O7       1.0000 0.29304  0.59304  0.30000  Biso   1.000  O
  O8       1.0000 0.70696  0.00696  0.30000  Biso   1.000  O
  O9       1.0000 0.96847  0.96847  0.56717  Biso   1.000  O
  O10      1.0000 0.40129  0.40129  0.43283  Biso   1.000  O
  O11      1.0000 0.96847  0.40129  0.00000  Biso   1.000  O
  O12      1.0000 0.40129  0.96847  0.00000  Biso   1.000  O
  O13      1.0000 0.03153  0.03153  0.43283  Biso   1.000  O
  O14      1.0000 0.59871  0.59871  0.56717  Biso   1.000  O
  O15      1.0000 0.03153  0.59871  0.00000  Biso   1.000  O
  O16      1.0000 0.59871  0.03153  0.00000  Biso   1.000  O
  O17      1.0000 0.88396  0.63738  0.24658  Biso   1.000  O
  O18      1.0000 0.35506  0.10026  0.25480  Biso   1.000  O
  O19      1.0000 0.84547  0.10026  0.74520  Biso   1.000  O
  O20      1.0000 0.39079  0.63738  0.75342  Biso   1.000  O
  O21      1.0000 0.11604  0.36262  0.75342  Biso   1.000  O
  O22      1.0000 0.64494  0.89974  0.74520  Biso   1.000  O
  O23      1.0000 0.15453  0.89974  0.25480  Biso   1.000  O
  O24      1.0000 0.60921  0.36262  0.24658  Biso   1.000  O
  O25      1.0000 0.36262  0.11742  0.75480  Biso   1.000  O
  O26      1.0000 0.89974  0.64632  0.74658  Biso   1.000  O
  O27      1.0000 0.36262  0.60783  0.24520  Biso   1.000  O
  O28      1.0000 0.89974  0.15315  0.25342  Biso   1.000  O
  O29      1.0000 0.10026  0.84685  0.74658  Biso   1.000  O
  O30      1.0000 0.63738  0.39217  0.75480  Biso   1.000  O
  O31      1.0000 0.10026  0.35368  0.25342  Biso   1.000  O
  O32      1.0000 0.63738  0.88258  0.24520  Biso   1.000  O
  O33      1.0000 0.79113  0.79113  0.48601  Biso   1.000  O
  O34      1.0000 0.30513  0.30513  0.51399  Biso   1.000  O
  O35      1.0000 0.79113  0.30513  0.00000  Biso   1.000  O
  O36      1.0000 0.30513  0.79113  0.00000  Biso   1.000  O
  O37      1.0000 0.20887  0.20887  0.51399  Biso   1.000  O
  O38      1.0000 0.69487  0.69487  0.48601  Biso   1.000  O
  O39      1.0000 0.20887  0.69487  0.00000  Biso   1.000  O
  O40      1.0000 0.69487  0.20887  0.00000  Biso   1.000  O
