data_image0
_cell_length_a       7.8528
_cell_length_b       30.3622
_cell_length_c       7.8528
_cell_angle_alpha    90
_cell_angle_beta     90
_cell_angle_gamma    90

_symmetry_space_group_name_H-M    "P 1"
_symmetry_int_tables_number       1

loop_
  _symmetry_equiv_pos_as_xyz
  'x, y, z'

loop_
  _atom_site_label
  _atom_site_occupancy
  _atom_site_fract_x
  _atom_site_fract_y
  _atom_site_fract_z
  _atom_site_thermal_displace_type
  _atom_site_B_iso_or_equiv
  _atom_site_type_symbol
  K1       1.0000 0.00000  0.00000  0.50000  Biso   1.000  K
  K2       1.0000 0.00000  0.50000  0.50000  Biso   1.000  K
  K3       1.0000 0.00000  0.00000  0.00000  Biso   1.000  K
  K4       1.0000 0.00000  0.50000  0.00000  Biso   1.000  K
  K5       1.0000 0.50000  0.00000  0.50000  Biso   1.000  K
  K6       1.0000 0.50000  0.50000  0.50000  Biso   1.000  K
  K7       1.0000 0.50000  0.00000  0.00000  Biso   1.000  K
  K8       1.0000 0.50000  0.50000  0.00000  Biso   1.000  K
  Pb1      1.0000 0.00966  0.81178  0.50000  Biso   1.000  Pb
  Pb2      1.0000 0.99034  0.33496  0.50000  Biso   1.000  Pb
  Pb3      1.0000 0.00966  0.82337  0.00000  Biso   1.000  Pb
  Pb4      1.0000 0.99034  0.32337  0.00000  Biso   1.000  Pb
  Pb5      1.0000 0.50966  0.82337  0.50000  Biso   1.000  Pb
  Pb6      1.0000 0.49034  0.32337  0.50000  Biso   1.000  Pb
  Pb7      1.0000 0.50966  0.83496  0.00000  Biso   1.000  Pb
  Pb8      1.0000 0.49034  0.31178  0.00000  Biso   1.000  Pb
  Pb9      1.0000 0.00966  0.67663  0.00000  Biso   1.000  Pb
  Pb10     1.0000 0.99034  0.17663  0.00000  Biso   1.000  Pb
  Pb11     1.0000 0.00966  0.66504  0.50000  Biso   1.000  Pb
  Pb12     1.0000 0.99034  0.18822  0.50000  Biso   1.000  Pb
  Pb13     1.0000 0.50966  0.68822  0.00000  Biso   1.000  Pb
  Pb14     1.0000 0.49034  0.16504  0.00000  Biso   1.000  Pb
  Pb15     1.0000 0.50966  0.67663  0.50000  Biso   1.000  Pb
  Pb16     1.0000 0.49034  0.17663  0.50000  Biso   1.000  Pb
  Nb1      1.0000 0.75000  0.75000  0.75000  Biso   1.000  Nb
  Nb2      1.0000 0.75000  0.25000  0.75000  Biso   1.000  Nb
  Nb3      1.0000 0.75000  0.75000  0.25000  Biso   1.000  Nb
  Nb4      1.0000 0.75000  0.25000  0.25000  Biso   1.000  Nb
  Nb5      1.0000 0.25000  0.75000  0.75000  Biso   1.000  Nb
  Nb6      1.0000 0.25000  0.25000  0.75000  Biso   1.000  Nb
  Nb7      1.0000 0.25000  0.75000  0.25000  Biso   1.000  Nb
  Nb8      1.0000 0.25000  0.25000  0.25000  Biso   1.000  Nb
  Ta1      1.0000 0.79125  0.89358  0.74887  Biso   1.000  Ta
  Ta2      1.0000 0.70875  0.39358  0.75113  Biso   1.000  Ta
  Ta3      1.0000 0.79125  0.89358  0.25113  Biso   1.000  Ta
  Ta4      1.0000 0.70875  0.39358  0.24887  Biso   1.000  Ta
  Ta5      1.0000 0.28899  0.89358  0.74887  Biso   1.000  Ta
  Ta6      1.0000 0.21101  0.39358  0.75113  Biso   1.000  Ta
  Ta7      1.0000 0.28899  0.89358  0.25113  Biso   1.000  Ta
  Ta8      1.0000 0.21101  0.39358  0.24887  Biso   1.000  Ta
  Ta9      1.0000 0.78899  0.60642  0.75113  Biso   1.000  Ta
  Ta10     1.0000 0.71101  0.10642  0.74887  Biso   1.000  Ta
  Ta11     1.0000 0.78899  0.60642  0.24887  Biso   1.000  Ta
  Ta12     1.0000 0.71101  0.10642  0.25113  Biso   1.000  Ta
  Ta13     1.0000 0.29125  0.60642  0.75113  Biso   1.000  Ta
  Ta14     1.0000 0.20875  0.10642  0.74887  Biso   1.000  Ta
  Ta15     1.0000 0.29125  0.60642  0.24887  Biso   1.000  Ta
  Ta16     1.0000 0.20875  0.10642  0.25113  Biso   1.000  Ta
  O1       1.0000 0.79836  0.79304  0.50000  Biso   1.000  O
  O2       1.0000 0.70164  0.20696  0.50000  Biso   1.000  O
  O3       1.0000 0.79836  0.70696  0.00000  Biso   1.000  O
  O4       1.0000 0.70164  0.29304  0.00000  Biso   1.000  O
  O5       1.0000 0.29836  0.79304  0.50000  Biso   1.000  O
  O6       1.0000 0.20164  0.20696  0.50000  Biso   1.000  O
  O7       1.0000 0.29836  0.70696  0.00000  Biso   1.000  O
  O8       1.0000 0.20164  0.29304  0.00000  Biso   1.000  O
  O9       1.0000 0.52601  0.70696  0.75000  Biso   1.000  O
  O10      1.0000 0.47399  0.29304  0.75000  Biso   1.000  O
  O11      1.0000 0.52601  0.70696  0.25000  Biso   1.000  O
  O12      1.0000 0.47399  0.29304  0.25000  Biso   1.000  O
  O13      1.0000 0.02601  0.79304  0.75000  Biso   1.000  O
  O14      1.0000 0.97399  0.20696  0.75000  Biso   1.000  O
  O15      1.0000 0.02601  0.79304  0.25000  Biso   1.000  O
  O16      1.0000 0.97399  0.20696  0.25000  Biso   1.000  O
  O17      1.0000 0.74650  0.81512  0.78359  Biso   1.000  O
  O18      1.0000 0.75350  0.31512  0.71641  Biso   1.000  O
  O19      1.0000 0.74650  0.81512  0.21641  Biso   1.000  O
  O20      1.0000 0.75350  0.31512  0.28359  Biso   1.000  O
  O21      1.0000 0.31367  0.81512  0.78359  Biso   1.000  O
  O22      1.0000 0.18633  0.31512  0.71641  Biso   1.000  O
  O23      1.0000 0.31367  0.81512  0.21641  Biso   1.000  O
  O24      1.0000 0.18633  0.31512  0.28359  Biso   1.000  O
  O25      1.0000 0.81367  0.68488  0.71641  Biso   1.000  O
  O26      1.0000 0.68633  0.18488  0.78359  Biso   1.000  O
  O27      1.0000 0.81367  0.68488  0.28359  Biso   1.000  O
  O28      1.0000 0.68633  0.18488  0.21641  Biso   1.000  O
  O29      1.0000 0.24650  0.68488  0.71641  Biso   1.000  O
  O30      1.0000 0.25350  0.18488  0.78359  Biso   1.000  O
  O31      1.0000 0.24650  0.68488  0.28359  Biso   1.000  O
  O32      1.0000 0.25350  0.18488  0.21641  Biso   1.000  O
  O33      1.0000 0.77287  0.86262  0.50000  Biso   1.000  O
  O34      1.0000 0.72713  0.39974  0.50000  Biso   1.000  O
  O35      1.0000 0.77287  0.89974  0.00000  Biso   1.000  O
  O36      1.0000 0.72713  0.36262  0.00000  Biso   1.000  O
  O37      1.0000 0.26466  0.86262  0.50000  Biso   1.000  O
  O38      1.0000 0.23534  0.39974  0.50000  Biso   1.000  O
  O39      1.0000 0.26466  0.89974  0.00000  Biso   1.000  O
  O40      1.0000 0.23534  0.36262  0.00000  Biso   1.000  O
  O41      1.0000 0.76466  0.63738  0.00000  Biso   1.000  O
  O42      1.0000 0.73534  0.10026  0.00000  Biso   1.000  O
  O43      1.0000 0.76466  0.60026  0.50000  Biso   1.000  O
  O44      1.0000 0.73534  0.13738  0.50000  Biso   1.000  O
  O45      1.0000 0.27287  0.63738  0.00000  Biso   1.000  O
  O46      1.0000 0.22713  0.10026  0.00000  Biso   1.000  O
  O47      1.0000 0.27287  0.60026  0.50000  Biso   1.000  O
  O48      1.0000 0.22713  0.13738  0.50000  Biso   1.000  O
  O49      1.0000 0.51613  0.63738  0.75411  Biso   1.000  O
  O50      1.0000 0.48387  0.10026  0.74589  Biso   1.000  O
  O51      1.0000 0.51613  0.63738  0.24589  Biso   1.000  O
  O52      1.0000 0.48387  0.10026  0.25411  Biso   1.000  O
  O53      1.0000 0.01613  0.60026  0.75411  Biso   1.000  O
  O54      1.0000 0.98387  0.13738  0.74589  Biso   1.000  O
  O55      1.0000 0.01613  0.60026  0.24589  Biso   1.000  O
  O56      1.0000 0.98387  0.13738  0.25411  Biso   1.000  O
  O57      1.0000 0.51613  0.89974  0.74589  Biso   1.000  O
  O58      1.0000 0.48387  0.36262  0.75411  Biso   1.000  O
  O59      1.0000 0.51613  0.89974  0.25411  Biso   1.000  O
  O60      1.0000 0.48387  0.36262  0.24589  Biso   1.000  O
  O61      1.0000 0.01613  0.86262  0.74589  Biso   1.000  O
  O62      1.0000 0.98387  0.39974  0.75411  Biso   1.000  O
  O63      1.0000 0.01613  0.86262  0.25411  Biso   1.000  O
  O64      1.0000 0.98387  0.39974  0.24589  Biso   1.000  O
  O65      1.0000 0.77348  0.95187  0.74300  Biso   1.000  O
  O66      1.0000 0.72652  0.45187  0.75700  Biso   1.000  O
  O67      1.0000 0.77348  0.95187  0.25700  Biso   1.000  O
  O68      1.0000 0.72652  0.45187  0.24300  Biso   1.000  O
  O69      1.0000 0.25949  0.95187  0.74300  Biso   1.000  O
  O70      1.0000 0.24051  0.45187  0.75700  Biso   1.000  O
  O71      1.0000 0.25949  0.95187  0.25700  Biso   1.000  O
  O72      1.0000 0.24051  0.45187  0.24300  Biso   1.000  O
  O73      1.0000 0.75949  0.54813  0.75700  Biso   1.000  O
  O74      1.0000 0.74051  0.04813  0.74300  Biso   1.000  O
  O75      1.0000 0.75949  0.54813  0.24300  Biso   1.000  O
  O76      1.0000 0.74051  0.04813  0.25700  Biso   1.000  O
  O77      1.0000 0.27348  0.54813  0.75700  Biso   1.000  O
  O78      1.0000 0.22652  0.04813  0.74300  Biso   1.000  O
  O79      1.0000 0.27348  0.54813  0.24300  Biso   1.000  O
  O80      1.0000 0.22652  0.04813  0.25700  Biso   1.000  O
