data_image0
_cell_length_a       16.1647
_cell_length_b       16.1647
_cell_length_c       16.1647
_cell_angle_alpha    151.885
_cell_angle_beta     151.885
_cell_angle_gamma    40.1819

_symmetry_space_group_name_H-M    "P 1"
_symmetry_int_tables_number       1

loop_
  _symmetry_equiv_pos_as_xyz
  'x, y, z'

loop_
  _atom_site_label
  _atom_site_occupancy
  _atom_site_fract_x
  _atom_site_fract_y
  _atom_site_fract_z
  _atom_site_thermal_displace_type
  _atom_site_B_iso_or_equiv
  _atom_site_type_symbol
  K1       1.0000 0.44094  0.44094  0.00000  Biso   1.000  K
  K2       1.0000 0.05906  0.05906  0.00000  Biso   1.000  K
  K3       1.0000 0.55906  0.05906  0.50000  Biso   1.000  K
  K4       1.0000 0.94094  0.44094  0.50000  Biso   1.000  K
  Pb1      1.0000 0.68479  0.68479  0.00000  Biso   1.000  Pb
  Pb2      1.0000 0.16847  0.16847  0.00000  Biso   1.000  Pb
  Pb3      1.0000 0.68006  0.18006  0.50000  Biso   1.000  Pb
  Pb4      1.0000 0.17320  0.67320  0.50000  Biso   1.000  Pb
  Pb5      1.0000 0.81994  0.31994  0.50000  Biso   1.000  Pb
  Pb6      1.0000 0.32680  0.82680  0.50000  Biso   1.000  Pb
  Pb7      1.0000 0.83839  0.83839  0.00000  Biso   1.000  Pb
  Pb8      1.0000 0.30835  0.30835  0.00000  Biso   1.000  Pb
  Nb1      1.0000 1.00000  0.99821  0.49821  Biso   1.000  Nb
  Nb2      1.0000 0.50000  0.50179  0.50179  Biso   1.000  Nb
  Nb3      1.0000 0.00000  0.50179  0.00179  Biso   1.000  Nb
  Nb4      1.0000 0.50000  0.99821  0.99821  Biso   1.000  Nb
  Ta1      1.0000 0.85529  0.86055  0.50301  Biso   1.000  Ta
  Ta2      1.0000 0.35755  0.35229  0.49699  Biso   1.000  Ta
  Ta3      1.0000 0.85529  0.35229  0.99474  Biso   1.000  Ta
  Ta4      1.0000 0.35755  0.86055  0.00526  Biso   1.000  Ta
  Ta5      1.0000 0.14471  0.14997  0.50752  Biso   1.000  Ta
  Ta6      1.0000 0.64245  0.63719  0.49248  Biso   1.000  Ta
  Ta7      1.0000 0.14471  0.63719  0.99474  Biso   1.000  Ta
  Ta8      1.0000 0.64245  0.14997  0.00526  Biso   1.000  Ta
  O1       1.0000 0.95696  0.70696  0.25000  Biso   1.000  O
  O2       1.0000 0.54304  0.29304  0.25000  Biso   1.000  O
  O3       1.0000 0.04304  0.29304  0.75000  Biso   1.000  O
  O4       1.0000 0.45696  0.70696  0.75000  Biso   1.000  O
  O5       1.0000 0.29304  0.04378  0.75074  Biso   1.000  O
  O6       1.0000 0.70696  0.45622  0.74926  Biso   1.000  O
  O7       1.0000 0.29304  0.54230  0.24926  Biso   1.000  O
  O8       1.0000 0.70696  0.95770  0.25074  Biso   1.000  O
  O9       1.0000 0.96847  0.96247  0.56117  Biso   1.000  O
  O10      1.0000 0.40129  0.40729  0.43883  Biso   1.000  O
  O11      1.0000 0.96847  0.40729  0.00600  Biso   1.000  O
  O12      1.0000 0.40129  0.96247  0.99400  Biso   1.000  O
  O13      1.0000 0.03153  0.02553  0.42683  Biso   1.000  O
  O14      1.0000 0.59871  0.60471  0.57317  Biso   1.000  O
  O15      1.0000 0.03153  0.60471  0.00600  Biso   1.000  O
  O16      1.0000 0.59871  0.02553  0.99400  Biso   1.000  O
  O17      1.0000 0.87077  0.62487  0.24589  Biso   1.000  O
  O18      1.0000 0.36687  0.11277  0.25411  Biso   1.000  O
  O19      1.0000 0.85866  0.11277  0.74589  Biso   1.000  O
  O20      1.0000 0.37898  0.62487  0.75411  Biso   1.000  O
  O21      1.0000 0.10423  0.35012  0.75411  Biso   1.000  O
  O22      1.0000 0.65813  0.91224  0.74589  Biso   1.000  O
  O23      1.0000 0.16634  0.91224  0.25411  Biso   1.000  O
  O24      1.0000 0.59602  0.35012  0.24589  Biso   1.000  O
  O25      1.0000 0.36262  0.11810  0.75547  Biso   1.000  O
  O26      1.0000 0.89974  0.64426  0.74453  Biso   1.000  O
  O27      1.0000 0.36262  0.60715  0.24453  Biso   1.000  O
  O28      1.0000 0.89974  0.15521  0.25547  Biso   1.000  O
  O29      1.0000 0.10026  0.84753  0.74726  Biso   1.000  O
  O30      1.0000 0.63738  0.39011  0.75274  Biso   1.000  O
  O31      1.0000 0.10026  0.35300  0.25274  Biso   1.000  O
  O32      1.0000 0.63738  0.88464  0.24726  Biso   1.000  O
  O33      1.0000 0.79113  0.81392  0.50880  Biso   1.000  O
  O34      1.0000 0.30513  0.28234  0.49120  Biso   1.000  O
  O35      1.0000 0.79113  0.28234  0.97721  Biso   1.000  O
  O36      1.0000 0.30513  0.81392  0.02279  Biso   1.000  O
  O37      1.0000 0.20887  0.23166  0.53678  Biso   1.000  O
  O38      1.0000 0.69487  0.67208  0.46322  Biso   1.000  O
  O39      1.0000 0.20887  0.67208  0.97721  Biso   1.000  O
  O40      1.0000 0.69487  0.23166  0.02279  Biso   1.000  O
