data_image0
_cell_length_a       16.1647
_cell_length_b       16.1647
_cell_length_c       16.1647
_cell_angle_alpha    40.1819
_cell_angle_beta     151.885
_cell_angle_gamma    151.885

_symmetry_space_group_name_H-M    "P 1"
_symmetry_int_tables_number       1

loop_
  _symmetry_equiv_pos_as_xyz
  'x, y, z'

loop_
  _atom_site_label
  _atom_site_occupancy
  _atom_site_fract_x
  _atom_site_fract_y
  _atom_site_fract_z
  _atom_site_thermal_displace_type
  _atom_site_B_iso_or_equiv
  _atom_site_type_symbol
  K1       1.0000 0.17930  0.42930  0.75000  Biso   1.000  K
  K2       1.0000 0.32070  0.07070  0.25000  Biso   1.000  K
  K3       1.0000 0.67930  0.92930  0.75000  Biso   1.000  K
  K4       1.0000 0.82070  0.57070  0.25000  Biso   1.000  K
  Pb1      1.0000 0.24970  0.31728  0.56757  Biso   1.000  Pb
  Pb2      1.0000 0.25030  0.82946  0.07917  Biso   1.000  Pb
  Pb3      1.0000 0.74970  0.82887  0.57917  Biso   1.000  Pb
  Pb4      1.0000 0.75030  0.31787  0.06757  Biso   1.000  Pb
  Pb5      1.0000 0.75030  0.68272  0.43243  Biso   1.000  Pb
  Pb6      1.0000 0.74970  0.17054  0.92083  Biso   1.000  Pb
  Pb7      1.0000 0.25030  0.17113  0.42083  Biso   1.000  Pb
  Pb8      1.0000 0.24970  0.68213  0.93243  Biso   1.000  Pb
  Nb1      1.0000 0.75000  0.50000  0.75000  Biso   1.000  Nb
  Nb2      1.0000 0.75000  0.00000  0.25000  Biso   1.000  Nb
  Nb3      1.0000 0.25000  0.00000  0.75000  Biso   1.000  Nb
  Nb4      1.0000 0.25000  0.50000  0.25000  Biso   1.000  Nb
  Ta1      1.0000 0.74887  0.64245  0.89358  Biso   1.000  Ta
  Ta2      1.0000 0.75113  0.14471  0.39358  Biso   1.000  Ta
  Ta3      1.0000 0.25113  0.14471  0.89358  Biso   1.000  Ta
  Ta4      1.0000 0.24887  0.64245  0.39358  Biso   1.000  Ta
  Ta5      1.0000 0.75113  0.35755  0.60642  Biso   1.000  Ta
  Ta6      1.0000 0.74887  0.85529  0.10642  Biso   1.000  Ta
  Ta7      1.0000 0.24887  0.85529  0.60642  Biso   1.000  Ta
  Ta8      1.0000 0.25113  0.35755  0.10642  Biso   1.000  Ta
  O1       1.0000 0.50000  0.29304  0.79304  Biso   1.000  O
  O2       1.0000 0.50000  0.70696  0.20696  Biso   1.000  O
  O3       1.0000 0.00000  0.70696  0.70696  Biso   1.000  O
  O4       1.0000 0.00000  0.29304  0.29304  Biso   1.000  O
  O5       1.0000 0.00000  0.50000  0.00000  Biso   1.000  O
  O6       1.0000 0.00000  0.00000  0.50000  Biso   1.000  O
  O7       1.0000 0.50000  0.00000  0.00000  Biso   1.000  O
  O8       1.0000 0.50000  0.50000  0.50000  Biso   1.000  O
  O9       1.0000 0.78359  0.59871  0.81512  Biso   1.000  O
  O10      1.0000 0.71641  0.03153  0.31512  Biso   1.000  O
  O11      1.0000 0.21641  0.03153  0.81512  Biso   1.000  O
  O12      1.0000 0.28359  0.59871  0.31512  Biso   1.000  O
  O13      1.0000 0.71641  0.40129  0.68488  Biso   1.000  O
  O14      1.0000 0.78359  0.96847  0.18488  Biso   1.000  O
  O15      1.0000 0.28359  0.96847  0.68488  Biso   1.000  O
  O16      1.0000 0.21641  0.40129  0.18488  Biso   1.000  O
  O17      1.0000 0.50000  0.36262  0.86262  Biso   1.000  O
  O18      1.0000 0.50000  0.89974  0.39974  Biso   1.000  O
  O19      1.0000 0.00000  0.89974  0.89974  Biso   1.000  O
  O20      1.0000 0.00000  0.36262  0.36262  Biso   1.000  O
  O21      1.0000 0.00000  0.63738  0.63738  Biso   1.000  O
  O22      1.0000 0.00000  0.10026  0.10026  Biso   1.000  O
  O23      1.0000 0.50000  0.10026  0.60026  Biso   1.000  O
  O24      1.0000 0.50000  0.63738  0.13738  Biso   1.000  O
  O25      1.0000 0.00450  0.37332  0.86882  Biso   1.000  O
  O26      1.0000 0.99550  0.86432  0.36882  Biso   1.000  O
  O27      1.0000 0.49629  0.86511  0.86882  Biso   1.000  O
  O28      1.0000 0.50371  0.37253  0.36882  Biso   1.000  O
  O29      1.0000 0.99550  0.62668  0.13118  Biso   1.000  O
  O30      1.0000 0.00450  0.13568  0.63118  Biso   1.000  O
  O31      1.0000 0.50371  0.13489  0.13118  Biso   1.000  O
  O32      1.0000 0.49629  0.62747  0.63118  Biso   1.000  O
  O33      1.0000 0.74300  0.69487  0.95187  Biso   1.000  O
  O34      1.0000 0.75700  0.20887  0.45187  Biso   1.000  O
  O35      1.0000 0.25700  0.20887  0.95187  Biso   1.000  O
  O36      1.0000 0.24300  0.69487  0.45187  Biso   1.000  O
  O37      1.0000 0.75700  0.30513  0.54813  Biso   1.000  O
  O38      1.0000 0.74300  0.79113  0.04813  Biso   1.000  O
  O39      1.0000 0.24300  0.79113  0.54813  Biso   1.000  O
  O40      1.0000 0.25700  0.30513  0.04813  Biso   1.000  O
