data_image0
_cell_length_a       16.1647
_cell_length_b       16.1647
_cell_length_c       7.8528
_cell_angle_alpha    104.058
_cell_angle_beta     104.058
_cell_angle_gamma    139.818

_symmetry_space_group_name_H-M    "P 1"
_symmetry_int_tables_number       1

loop_
  _symmetry_equiv_pos_as_xyz
  'x, y, z'

loop_
  _atom_site_label
  _atom_site_occupancy
  _atom_site_fract_x
  _atom_site_fract_y
  _atom_site_fract_z
  _atom_site_thermal_displace_type
  _atom_site_B_iso_or_equiv
  _atom_site_type_symbol
  K1       1.0000 0.40330  0.02142  0.75000  Biso   1.000  K
  K2       1.0000 0.02142  0.40330  0.75000  Biso   1.000  K
  K3       1.0000 0.59670  0.97858  0.25000  Biso   1.000  K
  K4       1.0000 0.97858  0.59670  0.25000  Biso   1.000  K
  Pb1      1.0000 0.68563  0.83923  0.75000  Biso   1.000  Pb
  Pb2      1.0000 0.19249  0.33237  0.75000  Biso   1.000  Pb
  Pb3      1.0000 0.66763  0.80751  0.25000  Biso   1.000  Pb
  Pb4      1.0000 0.16077  0.31437  0.25000  Biso   1.000  Pb
  Pb5      1.0000 0.80751  0.66763  0.25000  Biso   1.000  Pb
  Pb6      1.0000 0.31437  0.16077  0.25000  Biso   1.000  Pb
  Pb7      1.0000 0.83923  0.68563  0.75000  Biso   1.000  Pb
  Pb8      1.0000 0.33237  0.19249  0.75000  Biso   1.000  Pb
  Nb1      1.0000 0.99969  0.99969  0.75179  Biso   1.000  Nb
  Nb2      1.0000 0.49969  0.49969  0.74821  Biso   1.000  Nb
  Nb3      1.0000 0.00031  0.00031  0.24821  Biso   1.000  Nb
  Nb4      1.0000 0.50031  0.50031  0.25179  Biso   1.000  Nb
  Ta1      1.0000 0.86224  0.14940  0.74474  Biso   1.000  Ta
  Ta2      1.0000 0.36224  0.64940  0.75526  Biso   1.000  Ta
  Ta3      1.0000 0.85060  0.13776  0.25526  Biso   1.000  Ta
  Ta4      1.0000 0.35060  0.63776  0.24474  Biso   1.000  Ta
  Ta5      1.0000 0.14940  0.86224  0.74474  Biso   1.000  Ta
  Ta6      1.0000 0.64940  0.36224  0.75526  Biso   1.000  Ta
  Ta7      1.0000 0.13776  0.85060  0.25526  Biso   1.000  Ta
  Ta8      1.0000 0.63776  0.35060  0.24474  Biso   1.000  Ta
  O1       1.0000 0.00000  0.00000  0.00000  Biso   1.000  O
  O2       1.0000 0.50000  0.50000  0.00000  Biso   1.000  O
  O3       1.0000 0.00000  0.00000  0.50000  Biso   1.000  O
  O4       1.0000 0.50000  0.50000  0.50000  Biso   1.000  O
  O5       1.0000 0.25000  0.25000  0.99926  Biso   1.000  O
  O6       1.0000 0.75000  0.75000  0.00074  Biso   1.000  O
  O7       1.0000 0.25000  0.25000  0.50074  Biso   1.000  O
  O8       1.0000 0.75000  0.75000  0.49926  Biso   1.000  O
  O9       1.0000 0.92911  0.05935  0.75600  Biso   1.000  O
  O10      1.0000 0.42911  0.55935  0.74400  Biso   1.000  O
  O11      1.0000 0.94065  0.07089  0.24400  Biso   1.000  O
  O12      1.0000 0.44065  0.57089  0.25600  Biso   1.000  O
  O13      1.0000 0.05935  0.92911  0.75600  Biso   1.000  O
  O14      1.0000 0.55935  0.42911  0.74400  Biso   1.000  O
  O15      1.0000 0.07089  0.94065  0.24400  Biso   1.000  O
  O16      1.0000 0.57089  0.44065  0.25600  Biso   1.000  O
  O17      1.0000 0.84763  0.15237  0.00000  Biso   1.000  O
  O18      1.0000 0.37263  0.62737  0.00000  Biso   1.000  O
  O19      1.0000 0.89001  0.10999  0.50000  Biso   1.000  O
  O20      1.0000 0.36501  0.63499  0.50000  Biso   1.000  O
  O21      1.0000 0.10999  0.89001  0.50000  Biso   1.000  O
  O22      1.0000 0.63499  0.36501  0.50000  Biso   1.000  O
  O23      1.0000 0.15237  0.84763  0.00000  Biso   1.000  O
  O24      1.0000 0.62737  0.37263  0.00000  Biso   1.000  O
  O25      1.0000 0.37249  0.12751  0.99863  Biso   1.000  O
  O26      1.0000 0.87249  0.62751  0.00137  Biso   1.000  O
  O27      1.0000 0.38987  0.11013  0.50137  Biso   1.000  O
  O28      1.0000 0.88987  0.61013  0.49863  Biso   1.000  O
  O29      1.0000 0.12751  0.37249  0.99863  Biso   1.000  O
  O30      1.0000 0.62751  0.87249  0.00137  Biso   1.000  O
  O31      1.0000 0.11013  0.38987  0.50137  Biso   1.000  O
  O32      1.0000 0.61013  0.88987  0.49863  Biso   1.000  O
  O33      1.0000 0.81377  0.21751  0.72721  Biso   1.000  O
  O34      1.0000 0.31377  0.71751  0.77279  Biso   1.000  O
  O35      1.0000 0.78249  0.18623  0.27279  Biso   1.000  O
  O36      1.0000 0.28249  0.68623  0.22721  Biso   1.000  O
  O37      1.0000 0.21751  0.81377  0.72721  Biso   1.000  O
  O38      1.0000 0.71751  0.31377  0.77279  Biso   1.000  O
  O39      1.0000 0.18623  0.78249  0.27279  Biso   1.000  O
  O40      1.0000 0.68623  0.28249  0.22721  Biso   1.000  O
