data_image0
_cell_length_a       7.8528
_cell_length_b       7.8528
_cell_length_c       30.3622
_cell_angle_alpha    90
_cell_angle_beta     90
_cell_angle_gamma    90

_symmetry_space_group_name_H-M    "P 1"
_symmetry_int_tables_number       1

loop_
  _symmetry_equiv_pos_as_xyz
  'x, y, z'

loop_
  _atom_site_label
  _atom_site_occupancy
  _atom_site_fract_x
  _atom_site_fract_y
  _atom_site_fract_z
  _atom_site_thermal_displace_type
  _atom_site_B_iso_or_equiv
  _atom_site_type_symbol
  K1       1.0000 0.00000  0.00000  0.15720  Biso   1.000  K
  K2       1.0000 0.00000  0.00000  0.42098  Biso   1.000  K
  K3       1.0000 0.00000  0.50000  0.96091  Biso   1.000  K
  K4       1.0000 0.00000  0.50000  0.46091  Biso   1.000  K
  K5       1.0000 0.50000  0.00000  0.03909  Biso   1.000  K
  K6       1.0000 0.50000  0.00000  0.53909  Biso   1.000  K
  K7       1.0000 0.50000  0.50000  0.84280  Biso   1.000  K
  K8       1.0000 0.50000  0.50000  0.57902  Biso   1.000  K
  Pb1      1.0000 0.00000  0.00000  0.83329  Biso   1.000  Pb
  Pb2      1.0000 0.00000  0.00000  0.31958  Biso   1.000  Pb
  Pb3      1.0000 0.00000  0.50000  0.82031  Biso   1.000  Pb
  Pb4      1.0000 0.00000  0.50000  0.32031  Biso   1.000  Pb
  Pb5      1.0000 0.50000  0.00000  0.82643  Biso   1.000  Pb
  Pb6      1.0000 0.50000  0.00000  0.32643  Biso   1.000  Pb
  Pb7      1.0000 0.50000  0.50000  0.81345  Biso   1.000  Pb
  Pb8      1.0000 0.50000  0.50000  0.32716  Biso   1.000  Pb
  Pb9      1.0000 0.00000  0.50000  0.67357  Biso   1.000  Pb
  Pb10     1.0000 0.00000  0.50000  0.17357  Biso   1.000  Pb
  Pb11     1.0000 0.00000  0.00000  0.67284  Biso   1.000  Pb
  Pb12     1.0000 0.00000  0.00000  0.18655  Biso   1.000  Pb
  Pb13     1.0000 0.50000  0.50000  0.68042  Biso   1.000  Pb
  Pb14     1.0000 0.50000  0.50000  0.16671  Biso   1.000  Pb
  Pb15     1.0000 0.50000  0.00000  0.67969  Biso   1.000  Pb
  Pb16     1.0000 0.50000  0.00000  0.17969  Biso   1.000  Pb
  Nb1      1.0000 0.75179  0.75179  0.75000  Biso   1.000  Nb
  Nb2      1.0000 0.74821  0.74821  0.25000  Biso   1.000  Nb
  Nb3      1.0000 0.75179  0.24821  0.75000  Biso   1.000  Nb
  Nb4      1.0000 0.74821  0.25179  0.25000  Biso   1.000  Nb
  Nb5      1.0000 0.24821  0.75179  0.75000  Biso   1.000  Nb
  Nb6      1.0000 0.25179  0.74821  0.25000  Biso   1.000  Nb
  Nb7      1.0000 0.24821  0.24821  0.75000  Biso   1.000  Nb
  Nb8      1.0000 0.25179  0.25179  0.25000  Biso   1.000  Nb
  Ta1      1.0000 0.74474  0.73985  0.89358  Biso   1.000  Ta
  Ta2      1.0000 0.75526  0.75038  0.39358  Biso   1.000  Ta
  Ta3      1.0000 0.74474  0.26015  0.89358  Biso   1.000  Ta
  Ta4      1.0000 0.75526  0.24962  0.39358  Biso   1.000  Ta
  Ta5      1.0000 0.25526  0.73985  0.89358  Biso   1.000  Ta
  Ta6      1.0000 0.24474  0.75038  0.39358  Biso   1.000  Ta
  Ta7      1.0000 0.25526  0.26015  0.89358  Biso   1.000  Ta
  Ta8      1.0000 0.24474  0.24962  0.39358  Biso   1.000  Ta
  Ta9      1.0000 0.74474  0.74962  0.60642  Biso   1.000  Ta
  Ta10     1.0000 0.75526  0.76015  0.10642  Biso   1.000  Ta
  Ta11     1.0000 0.74474  0.25038  0.60642  Biso   1.000  Ta
  Ta12     1.0000 0.75526  0.23985  0.10642  Biso   1.000  Ta
  Ta13     1.0000 0.25526  0.74962  0.60642  Biso   1.000  Ta
  Ta14     1.0000 0.24474  0.76015  0.10642  Biso   1.000  Ta
  Ta15     1.0000 0.25526  0.25038  0.60642  Biso   1.000  Ta
  Ta16     1.0000 0.24474  0.23985  0.10642  Biso   1.000  Ta
  O1       1.0000 0.74926  0.00000  0.72851  Biso   1.000  O
  O2       1.0000 0.75074  0.00000  0.22851  Biso   1.000  O
  O3       1.0000 0.74926  0.50000  0.77149  Biso   1.000  O
  O4       1.0000 0.75074  0.50000  0.27149  Biso   1.000  O
  O5       1.0000 0.25074  0.00000  0.72851  Biso   1.000  O
  O6       1.0000 0.24926  0.00000  0.22851  Biso   1.000  O
  O7       1.0000 0.25074  0.50000  0.77149  Biso   1.000  O
  O8       1.0000 0.24926  0.50000  0.27149  Biso   1.000  O
  O9       1.0000 0.50000  0.74926  0.75000  Biso   1.000  O
  O10      1.0000 0.50000  0.75074  0.25000  Biso   1.000  O
  O11      1.0000 0.50000  0.25074  0.75000  Biso   1.000  O
  O12      1.0000 0.50000  0.24926  0.25000  Biso   1.000  O
  O13      1.0000 0.00000  0.74926  0.75000  Biso   1.000  O
  O14      1.0000 0.00000  0.75074  0.25000  Biso   1.000  O
  O15      1.0000 0.00000  0.25074  0.75000  Biso   1.000  O
  O16      1.0000 0.00000  0.24926  0.25000  Biso   1.000  O
  O17      1.0000 0.75600  0.77544  0.81512  Biso   1.000  O
  O18      1.0000 0.74400  0.76345  0.31512  Biso   1.000  O
  O19      1.0000 0.75600  0.22456  0.81512  Biso   1.000  O
  O20      1.0000 0.74400  0.23655  0.31512  Biso   1.000  O
  O21      1.0000 0.24400  0.77544  0.81512  Biso   1.000  O
  O22      1.0000 0.25600  0.76345  0.31512  Biso   1.000  O
  O23      1.0000 0.24400  0.22456  0.81512  Biso   1.000  O
  O24      1.0000 0.25600  0.23655  0.31512  Biso   1.000  O
  O25      1.0000 0.75600  0.73655  0.68488  Biso   1.000  O
  O26      1.0000 0.74400  0.72456  0.18488  Biso   1.000  O
  O27      1.0000 0.75600  0.26345  0.68488  Biso   1.000  O
  O28      1.0000 0.74400  0.27544  0.18488  Biso   1.000  O
  O29      1.0000 0.24400  0.73655  0.68488  Biso   1.000  O
  O30      1.0000 0.25600  0.72456  0.18488  Biso   1.000  O
  O31      1.0000 0.24400  0.26345  0.68488  Biso   1.000  O
  O32      1.0000 0.25600  0.27544  0.18488  Biso   1.000  O
  O33      1.0000 0.74863  0.00000  0.91377  Biso   1.000  O
  O34      1.0000 0.75137  0.00000  0.38877  Biso   1.000  O
  O35      1.0000 0.74863  0.50000  0.84859  Biso   1.000  O
  O36      1.0000 0.75137  0.50000  0.37359  Biso   1.000  O
  O37      1.0000 0.25137  0.00000  0.91377  Biso   1.000  O
  O38      1.0000 0.24863  0.00000  0.38877  Biso   1.000  O
  O39      1.0000 0.25137  0.50000  0.84859  Biso   1.000  O
  O40      1.0000 0.24863  0.50000  0.37359  Biso   1.000  O
  O41      1.0000 0.74863  0.50000  0.61123  Biso   1.000  O
  O42      1.0000 0.75137  0.50000  0.08623  Biso   1.000  O
  O43      1.0000 0.74863  0.00000  0.62641  Biso   1.000  O
  O44      1.0000 0.75137  0.00000  0.15141  Biso   1.000  O
  O45      1.0000 0.25137  0.50000  0.61123  Biso   1.000  O
  O46      1.0000 0.24863  0.50000  0.08623  Biso   1.000  O
  O47      1.0000 0.25137  0.00000  0.62641  Biso   1.000  O
  O48      1.0000 0.24863  0.00000  0.15141  Biso   1.000  O
  O49      1.0000 0.50000  0.75113  0.63132  Biso   1.000  O
  O50      1.0000 0.50000  0.75386  0.10632  Biso   1.000  O
  O51      1.0000 0.50000  0.24887  0.63132  Biso   1.000  O
  O52      1.0000 0.50000  0.24614  0.10632  Biso   1.000  O
  O53      1.0000 0.00000  0.75113  0.60632  Biso   1.000  O
  O54      1.0000 0.00000  0.75386  0.13132  Biso   1.000  O
  O55      1.0000 0.00000  0.24887  0.60632  Biso   1.000  O
  O56      1.0000 0.00000  0.24614  0.13132  Biso   1.000  O
  O57      1.0000 0.50000  0.74614  0.86868  Biso   1.000  O
  O58      1.0000 0.50000  0.74887  0.39368  Biso   1.000  O
  O59      1.0000 0.50000  0.25386  0.86868  Biso   1.000  O
  O60      1.0000 0.50000  0.25113  0.39368  Biso   1.000  O
  O61      1.0000 0.00000  0.74614  0.89368  Biso   1.000  O
  O62      1.0000 0.00000  0.74887  0.36868  Biso   1.000  O
  O63      1.0000 0.00000  0.25386  0.89368  Biso   1.000  O
  O64      1.0000 0.00000  0.25113  0.36868  Biso   1.000  O
  O65      1.0000 0.72721  0.70107  0.95187  Biso   1.000  O
  O66      1.0000 0.77279  0.74665  0.45187  Biso   1.000  O
  O67      1.0000 0.72721  0.29893  0.95187  Biso   1.000  O
  O68      1.0000 0.77279  0.25335  0.45187  Biso   1.000  O
  O69      1.0000 0.27279  0.70107  0.95187  Biso   1.000  O
  O70      1.0000 0.22721  0.74665  0.45187  Biso   1.000  O
  O71      1.0000 0.27279  0.29893  0.95187  Biso   1.000  O
  O72      1.0000 0.22721  0.25335  0.45187  Biso   1.000  O
  O73      1.0000 0.72721  0.75335  0.54813  Biso   1.000  O
  O74      1.0000 0.77279  0.79893  0.04813  Biso   1.000  O
  O75      1.0000 0.72721  0.24665  0.54813  Biso   1.000  O
  O76      1.0000 0.77279  0.20107  0.04813  Biso   1.000  O
  O77      1.0000 0.27279  0.75335  0.54813  Biso   1.000  O
  O78      1.0000 0.22721  0.79893  0.04813  Biso   1.000  O
  O79      1.0000 0.27279  0.24665  0.54813  Biso   1.000  O
  O80      1.0000 0.22721  0.20107  0.04813  Biso   1.000  O
