data_image0
_cell_length_a       15.6806
_cell_length_b       15.6806
_cell_length_c       7.8528
_cell_angle_alpha    90
_cell_angle_beta     90
_cell_angle_gamma    150.998

_symmetry_space_group_name_H-M    "P 1"
_symmetry_int_tables_number       1

loop_
  _symmetry_equiv_pos_as_xyz
  'x, y, z'

loop_
  _atom_site_label
  _atom_site_occupancy
  _atom_site_fract_x
  _atom_site_fract_y
  _atom_site_fract_z
  _atom_site_thermal_displace_type
  _atom_site_B_iso_or_equiv
  _atom_site_type_symbol
  K1       1.0000 0.65185  0.34815  0.75000  Biso   1.000  K
  K2       1.0000 0.26997  0.73003  0.75000  Biso   1.000  K
  K3       1.0000 0.73003  0.26997  0.25000  Biso   1.000  K
  K4       1.0000 0.34815  0.65185  0.25000  Biso   1.000  K
  Pb1      1.0000 0.92014  0.07986  0.75000  Biso   1.000  Pb
  Pb2      1.0000 0.42699  0.57301  0.75000  Biso   1.000  Pb
  Pb3      1.0000 0.92627  0.07373  0.25000  Biso   1.000  Pb
  Pb4      1.0000 0.43312  0.56688  0.25000  Biso   1.000  Pb
  Pb5      1.0000 0.56688  0.43312  0.75000  Biso   1.000  Pb
  Pb6      1.0000 0.07373  0.92627  0.75000  Biso   1.000  Pb
  Pb7      1.0000 0.57301  0.42699  0.25000  Biso   1.000  Pb
  Pb8      1.0000 0.07986  0.92014  0.25000  Biso   1.000  Pb
  Nb1      1.0000 0.75179  0.75179  0.50000  Biso   1.000  Nb
  Nb2      1.0000 0.24821  0.24821  0.50000  Biso   1.000  Nb
  Nb3      1.0000 0.75179  0.75179  0.00000  Biso   1.000  Nb
  Nb4      1.0000 0.24821  0.24821  0.00000  Biso   1.000  Nb
  Ta1      1.0000 0.60116  0.88832  0.49512  Biso   1.000  Ta
  Ta2      1.0000 0.11168  0.39884  0.49512  Biso   1.000  Ta
  Ta3      1.0000 0.60116  0.88832  0.00488  Biso   1.000  Ta
  Ta4      1.0000 0.11168  0.39884  0.00488  Biso   1.000  Ta
  Ta5      1.0000 0.88832  0.60116  0.50488  Biso   1.000  Ta
  Ta6      1.0000 0.39884  0.11168  0.50488  Biso   1.000  Ta
  Ta7      1.0000 0.88832  0.60116  0.99512  Biso   1.000  Ta
  Ta8      1.0000 0.39884  0.11168  0.99512  Biso   1.000  Ta
  O1       1.0000 0.00000  0.00000  0.50000  Biso   1.000  O
  O2       1.0000 0.50000  0.50000  0.50000  Biso   1.000  O
  O3       1.0000 0.00000  0.00000  0.00000  Biso   1.000  O
  O4       1.0000 0.50000  0.50000  0.00000  Biso   1.000  O
  O5       1.0000 0.72777  0.77075  0.25000  Biso   1.000  O
  O6       1.0000 0.22925  0.27223  0.25000  Biso   1.000  O
  O7       1.0000 0.77075  0.72777  0.75000  Biso   1.000  O
  O8       1.0000 0.27223  0.22925  0.75000  Biso   1.000  O
  O9       1.0000 0.69088  0.82112  0.51945  Biso   1.000  O
  O10      1.0000 0.17888  0.30912  0.51945  Biso   1.000  O
  O11      1.0000 0.69088  0.82112  0.98055  Biso   1.000  O
  O12      1.0000 0.17888  0.30912  0.98055  Biso   1.000  O
  O13      1.0000 0.82112  0.69088  0.48055  Biso   1.000  O
  O14      1.0000 0.30912  0.17888  0.48055  Biso   1.000  O
  O15      1.0000 0.82112  0.69088  0.01945  Biso   1.000  O
  O16      1.0000 0.30912  0.17888  0.01945  Biso   1.000  O
  O17      1.0000 0.85632  0.14368  0.49750  Biso   1.000  O
  O18      1.0000 0.38132  0.61868  0.49750  Biso   1.000  O
  O19      1.0000 0.85632  0.14368  0.00250  Biso   1.000  O
  O20      1.0000 0.38132  0.61868  0.00250  Biso   1.000  O
  O21      1.0000 0.61868  0.38132  0.50250  Biso   1.000  O
  O22      1.0000 0.14368  0.85632  0.50250  Biso   1.000  O
  O23      1.0000 0.61868  0.38132  0.99750  Biso   1.000  O
  O24      1.0000 0.14368  0.85632  0.99750  Biso   1.000  O
  O25      1.0000 0.89990  0.59736  0.25000  Biso   1.000  O
  O26      1.0000 0.40264  0.10010  0.25000  Biso   1.000  O
  O27      1.0000 0.85972  0.63754  0.75000  Biso   1.000  O
  O28      1.0000 0.36246  0.14028  0.75000  Biso   1.000  O
  O29      1.0000 0.63754  0.85972  0.25000  Biso   1.000  O
  O30      1.0000 0.14028  0.36246  0.25000  Biso   1.000  O
  O31      1.0000 0.59736  0.89990  0.75000  Biso   1.000  O
  O32      1.0000 0.10010  0.40264  0.75000  Biso   1.000  O
  O33      1.0000 0.52534  0.92908  0.47386  Biso   1.000  O
  O34      1.0000 0.07092  0.47466  0.47386  Biso   1.000  O
  O35      1.0000 0.52534  0.92908  0.02614  Biso   1.000  O
  O36      1.0000 0.07092  0.47466  0.02614  Biso   1.000  O
  O37      1.0000 0.92908  0.52534  0.52614  Biso   1.000  O
  O38      1.0000 0.47466  0.07092  0.52614  Biso   1.000  O
  O39      1.0000 0.92908  0.52534  0.97386  Biso   1.000  O
  O40      1.0000 0.47466  0.07092  0.97386  Biso   1.000  O
