data_image0
_cell_length_a       15.6806
_cell_length_b       15.6806
_cell_length_c       7.8528
_cell_angle_alpha    90
_cell_angle_beta     90
_cell_angle_gamma    150.998

_symmetry_space_group_name_H-M    "P 1"
_symmetry_int_tables_number       1

loop_
  _symmetry_equiv_pos_as_xyz
  'x, y, z'

loop_
  _atom_site_label
  _atom_site_occupancy
  _atom_site_fract_x
  _atom_site_fract_y
  _atom_site_fract_z
  _atom_site_thermal_displace_type
  _atom_site_B_iso_or_equiv
  _atom_site_type_symbol
  K1       1.0000 0.69094  0.30906  0.75000  Biso   1.000  K
  K2       1.0000 0.30906  0.69094  0.75000  Biso   1.000  K
  K3       1.0000 0.69094  0.30906  0.25000  Biso   1.000  K
  K4       1.0000 0.30906  0.69094  0.25000  Biso   1.000  K
  Pb1      1.0000 0.90071  0.05430  0.72750  Biso   1.000  Pb
  Pb2      1.0000 0.45255  0.59244  0.77250  Biso   1.000  Pb
  Pb3      1.0000 0.94570  0.09929  0.27250  Biso   1.000  Pb
  Pb4      1.0000 0.40756  0.54745  0.22750  Biso   1.000  Pb
  Pb5      1.0000 0.59244  0.45255  0.77250  Biso   1.000  Pb
  Pb6      1.0000 0.05430  0.90071  0.72750  Biso   1.000  Pb
  Pb7      1.0000 0.54745  0.40756  0.22750  Biso   1.000  Pb
  Pb8      1.0000 0.09929  0.94570  0.27250  Biso   1.000  Pb
  Nb1      1.0000 0.75391  0.75391  0.50211  Biso   1.000  Nb
  Nb2      1.0000 0.24609  0.24609  0.49789  Biso   1.000  Nb
  Nb3      1.0000 0.74968  0.74968  0.99789  Biso   1.000  Nb
  Nb4      1.0000 0.25032  0.25032  0.00211  Biso   1.000  Nb
  Ta1      1.0000 0.59491  0.88207  0.49375  Biso   1.000  Ta
  Ta2      1.0000 0.11793  0.40509  0.50625  Biso   1.000  Ta
  Ta3      1.0000 0.60741  0.89457  0.00625  Biso   1.000  Ta
  Ta4      1.0000 0.10543  0.39259  0.99375  Biso   1.000  Ta
  Ta5      1.0000 0.88207  0.59491  0.49375  Biso   1.000  Ta
  Ta6      1.0000 0.40509  0.11793  0.50625  Biso   1.000  Ta
  Ta7      1.0000 0.89457  0.60741  0.00625  Biso   1.000  Ta
  Ta8      1.0000 0.39259  0.10543  0.99375  Biso   1.000  Ta
  O1       1.0000 0.00000  0.00000  0.50000  Biso   1.000  O
  O2       1.0000 0.50000  0.50000  0.50000  Biso   1.000  O
  O3       1.0000 0.00000  0.00000  0.00000  Biso   1.000  O
  O4       1.0000 0.50000  0.50000  0.00000  Biso   1.000  O
  O5       1.0000 0.74926  0.74926  0.25000  Biso   1.000  O
  O6       1.0000 0.25074  0.25074  0.25000  Biso   1.000  O
  O7       1.0000 0.74926  0.74926  0.75000  Biso   1.000  O
  O8       1.0000 0.25074  0.25074  0.75000  Biso   1.000  O
  O9       1.0000 0.71032  0.84056  0.51944  Biso   1.000  O
  O10      1.0000 0.15944  0.28968  0.48056  Biso   1.000  O
  O11      1.0000 0.67144  0.80168  0.98056  Biso   1.000  O
  O12      1.0000 0.19832  0.32856  0.01944  Biso   1.000  O
  O13      1.0000 0.84056  0.71032  0.51944  Biso   1.000  O
  O14      1.0000 0.28968  0.15944  0.48056  Biso   1.000  O
  O15      1.0000 0.80168  0.67144  0.98056  Biso   1.000  O
  O16      1.0000 0.32856  0.19832  0.01944  Biso   1.000  O
  O17      1.0000 0.84194  0.15806  0.50000  Biso   1.000  O
  O18      1.0000 0.39570  0.60430  0.50000  Biso   1.000  O
  O19      1.0000 0.87070  0.12930  0.00000  Biso   1.000  O
  O20      1.0000 0.36694  0.63306  0.00000  Biso   1.000  O
  O21      1.0000 0.60430  0.39570  0.50000  Biso   1.000  O
  O22      1.0000 0.15806  0.84194  0.50000  Biso   1.000  O
  O23      1.0000 0.63306  0.36694  0.00000  Biso   1.000  O
  O24      1.0000 0.12930  0.87070  0.00000  Biso   1.000  O
  O25      1.0000 0.86544  0.63183  0.25000  Biso   1.000  O
  O26      1.0000 0.39692  0.10581  0.25000  Biso   1.000  O
  O27      1.0000 0.89419  0.60308  0.75000  Biso   1.000  O
  O28      1.0000 0.36817  0.13456  0.75000  Biso   1.000  O
  O29      1.0000 0.63183  0.86544  0.25000  Biso   1.000  O
  O30      1.0000 0.10581  0.39692  0.25000  Biso   1.000  O
  O31      1.0000 0.60308  0.89419  0.75000  Biso   1.000  O
  O32      1.0000 0.13456  0.36817  0.75000  Biso   1.000  O
  O33      1.0000 0.51449  0.91823  0.48915  Biso   1.000  O
  O34      1.0000 0.08177  0.48551  0.51085  Biso   1.000  O
  O35      1.0000 0.53619  0.93993  0.01085  Biso   1.000  O
  O36      1.0000 0.06007  0.46381  0.98915  Biso   1.000  O
  O37      1.0000 0.91823  0.51449  0.48915  Biso   1.000  O
  O38      1.0000 0.48551  0.08177  0.51085  Biso   1.000  O
  O39      1.0000 0.93993  0.53619  0.01085  Biso   1.000  O
  O40      1.0000 0.46381  0.06007  0.98915  Biso   1.000  O
