data_image0
_cell_length_a       7.8528
_cell_length_b       7.8528
_cell_length_c       30.3622
_cell_angle_alpha    90
_cell_angle_beta     90
_cell_angle_gamma    90

_symmetry_space_group_name_H-M    "P 1"
_symmetry_int_tables_number       1

loop_
  _symmetry_equiv_pos_as_xyz
  'x, y, z'

loop_
  _atom_site_label
  _atom_site_occupancy
  _atom_site_fract_x
  _atom_site_fract_y
  _atom_site_fract_z
  _atom_site_thermal_displace_type
  _atom_site_B_iso_or_equiv
  _atom_site_type_symbol
  K1       1.0000 0.98316  0.01684  0.63189  Biso   1.000  K
  K2       1.0000 0.01684  0.98316  0.36811  Biso   1.000  K
  K3       1.0000 0.51684  0.98316  0.75000  Biso   1.000  K
  K4       1.0000 0.48316  0.01684  0.25000  Biso   1.000  K
  K5       1.0000 0.01684  0.48316  0.75000  Biso   1.000  K
  K6       1.0000 0.98316  0.51684  0.25000  Biso   1.000  K
  K7       1.0000 0.48316  0.51684  0.86811  Biso   1.000  K
  K8       1.0000 0.51684  0.48316  0.13189  Biso   1.000  K
  Pb1      1.0000 0.01405  0.98595  0.91977  Biso   1.000  Pb
  Pb2      1.0000 0.98595  0.01405  0.43349  Biso   1.000  Pb
  Pb3      1.0000 0.48595  0.01405  0.92663  Biso   1.000  Pb
  Pb4      1.0000 0.51405  0.98595  0.42663  Biso   1.000  Pb
  Pb5      1.0000 0.98595  0.51405  0.92663  Biso   1.000  Pb
  Pb6      1.0000 0.01405  0.48595  0.42663  Biso   1.000  Pb
  Pb7      1.0000 0.51405  0.48595  0.93349  Biso   1.000  Pb
  Pb8      1.0000 0.48595  0.51405  0.41977  Biso   1.000  Pb
  Pb9      1.0000 0.51405  0.98595  0.07337  Biso   1.000  Pb
  Pb10     1.0000 0.48595  0.01405  0.57337  Biso   1.000  Pb
  Pb11     1.0000 0.98595  0.01405  0.08023  Biso   1.000  Pb
  Pb12     1.0000 0.01405  0.98595  0.56651  Biso   1.000  Pb
  Pb13     1.0000 0.48595  0.51405  0.06651  Biso   1.000  Pb
  Pb14     1.0000 0.51405  0.48595  0.58023  Biso   1.000  Pb
  Pb15     1.0000 0.01405  0.48595  0.07337  Biso   1.000  Pb
  Pb16     1.0000 0.98595  0.51405  0.57337  Biso   1.000  Pb
  Nb1      1.0000 0.75179  0.75179  0.00000  Biso   1.000  Nb
  Nb2      1.0000 0.74821  0.74821  0.50000  Biso   1.000  Nb
  Nb3      1.0000 0.24821  0.75179  0.00000  Biso   1.000  Nb
  Nb4      1.0000 0.25179  0.74821  0.50000  Biso   1.000  Nb
  Nb5      1.0000 0.75179  0.24821  0.00000  Biso   1.000  Nb
  Nb6      1.0000 0.74821  0.25179  0.50000  Biso   1.000  Nb
  Nb7      1.0000 0.24821  0.24821  0.00000  Biso   1.000  Nb
  Nb8      1.0000 0.25179  0.25179  0.50000  Biso   1.000  Nb
  Ta1      1.0000 0.74151  0.74797  0.85642  Biso   1.000  Ta
  Ta2      1.0000 0.75849  0.75203  0.35642  Biso   1.000  Ta
  Ta3      1.0000 0.25849  0.74151  0.85642  Biso   1.000  Ta
  Ta4      1.0000 0.24151  0.75849  0.35642  Biso   1.000  Ta
  Ta5      1.0000 0.74797  0.25203  0.85642  Biso   1.000  Ta
  Ta6      1.0000 0.75203  0.24797  0.35642  Biso   1.000  Ta
  Ta7      1.0000 0.25203  0.25849  0.85642  Biso   1.000  Ta
  Ta8      1.0000 0.24797  0.24151  0.35642  Biso   1.000  Ta
  Ta9      1.0000 0.74797  0.74151  0.14358  Biso   1.000  Ta
  Ta10     1.0000 0.75203  0.75849  0.64358  Biso   1.000  Ta
  Ta11     1.0000 0.25203  0.74797  0.14358  Biso   1.000  Ta
  Ta12     1.0000 0.24797  0.75203  0.64358  Biso   1.000  Ta
  Ta13     1.0000 0.74151  0.25849  0.14358  Biso   1.000  Ta
  Ta14     1.0000 0.75849  0.24151  0.64358  Biso   1.000  Ta
  Ta15     1.0000 0.25849  0.25203  0.14358  Biso   1.000  Ta
  Ta16     1.0000 0.24151  0.24797  0.64358  Biso   1.000  Ta
  O1       1.0000 0.00000  0.74926  0.02055  Biso   1.000  O
  O2       1.0000 0.00000  0.75074  0.47945  Biso   1.000  O
  O3       1.0000 0.50000  0.74926  0.97945  Biso   1.000  O
  O4       1.0000 0.50000  0.75074  0.52055  Biso   1.000  O
  O5       1.0000 1.00000  0.25074  0.97945  Biso   1.000  O
  O6       1.0000 1.00000  0.24926  0.52055  Biso   1.000  O
  O7       1.0000 0.50000  0.25074  0.02055  Biso   1.000  O
  O8       1.0000 0.50000  0.24926  0.47945  Biso   1.000  O
  O9       1.0000 0.74926  0.50000  0.02055  Biso   1.000  O
  O10      1.0000 0.75074  0.50000  0.47945  Biso   1.000  O
  O11      1.0000 0.25074  0.50000  0.97945  Biso   1.000  O
  O12      1.0000 0.24926  0.50000  0.52055  Biso   1.000  O
  O13      1.0000 0.74926  0.00000  0.97945  Biso   1.000  O
  O14      1.0000 0.75074  0.00000  0.52055  Biso   1.000  O
  O15      1.0000 0.25074  1.00000  0.02055  Biso   1.000  O
  O16      1.0000 0.24926  0.00000  0.47945  Biso   1.000  O
  O17      1.0000 0.77559  0.73641  0.93488  Biso   1.000  O
  O18      1.0000 0.72441  0.76359  0.43488  Biso   1.000  O
  O19      1.0000 0.22441  0.77559  0.93488  Biso   1.000  O
  O20      1.0000 0.27559  0.72441  0.43488  Biso   1.000  O
  O21      1.0000 0.73641  0.26359  0.93488  Biso   1.000  O
  O22      1.0000 0.76359  0.23641  0.43488  Biso   1.000  O
  O23      1.0000 0.26359  0.22441  0.93488  Biso   1.000  O
  O24      1.0000 0.23641  0.27559  0.43488  Biso   1.000  O
  O25      1.0000 0.73641  0.77559  0.06512  Biso   1.000  O
  O26      1.0000 0.76359  0.72441  0.56512  Biso   1.000  O
  O27      1.0000 0.26359  0.73641  0.06512  Biso   1.000  O
  O28      1.0000 0.23641  0.76359  0.56512  Biso   1.000  O
  O29      1.0000 0.77559  0.22441  0.06512  Biso   1.000  O
  O30      1.0000 0.72441  0.27559  0.56512  Biso   1.000  O
  O31      1.0000 0.22441  0.26359  0.06512  Biso   1.000  O
  O32      1.0000 0.27559  0.23641  0.56512  Biso   1.000  O
  O33      1.0000 0.00000  0.74863  0.84439  Biso   1.000  O
  O34      1.0000 0.00000  0.75137  0.39325  Biso   1.000  O
  O35      1.0000 0.50000  0.74863  0.89325  Biso   1.000  O
  O36      1.0000 0.50000  0.75137  0.34439  Biso   1.000  O
  O37      1.0000 0.00000  0.25137  0.86825  Biso   1.000  O
  O38      1.0000 0.00000  0.24863  0.36939  Biso   1.000  O
  O39      1.0000 0.50000  0.25137  0.86939  Biso   1.000  O
  O40      1.0000 0.50000  0.24863  0.36825  Biso   1.000  O
  O41      1.0000 0.50000  0.74863  0.13061  Biso   1.000  O
  O42      1.0000 0.50000  0.75137  0.63175  Biso   1.000  O
  O43      1.0000 0.00000  0.74863  0.13175  Biso   1.000  O
  O44      1.0000 1.00000  0.75137  0.63061  Biso   1.000  O
  O45      1.0000 0.50000  0.25137  0.10675  Biso   1.000  O
  O46      1.0000 0.50000  0.24863  0.65561  Biso   1.000  O
  O47      1.0000 1.00000  0.25137  0.15561  Biso   1.000  O
  O48      1.0000 1.00000  0.24863  0.60675  Biso   1.000  O
  O49      1.0000 0.74863  0.50000  0.10675  Biso   1.000  O
  O50      1.0000 0.75137  0.50000  0.65561  Biso   1.000  O
  O51      1.0000 0.25137  0.50000  0.13061  Biso   1.000  O
  O52      1.0000 0.24863  0.50000  0.63175  Biso   1.000  O
  O53      1.0000 0.74863  0.00000  0.15561  Biso   1.000  O
  O54      1.0000 0.75137  0.00000  0.60675  Biso   1.000  O
  O55      1.0000 0.25137  0.00000  0.13175  Biso   1.000  O
  O56      1.0000 0.24863  0.00000  0.63061  Biso   1.000  O
  O57      1.0000 0.74863  0.50000  0.86939  Biso   1.000  O
  O58      1.0000 0.75137  0.50000  0.36825  Biso   1.000  O
  O59      1.0000 0.25137  0.50000  0.89325  Biso   1.000  O
  O60      1.0000 0.24863  0.50000  0.34439  Biso   1.000  O
  O61      1.0000 0.74863  0.00000  0.86825  Biso   1.000  O
  O62      1.0000 0.75137  1.00000  0.36939  Biso   1.000  O
  O63      1.0000 0.25137  1.00000  0.84439  Biso   1.000  O
  O64      1.0000 0.24863  1.00000  0.39325  Biso   1.000  O
  O65      1.0000 0.71444  0.73998  0.79813  Biso   1.000  O
  O66      1.0000 0.78556  0.76002  0.29813  Biso   1.000  O
  O67      1.0000 0.28556  0.71444  0.79813  Biso   1.000  O
  O68      1.0000 0.21444  0.78556  0.29813  Biso   1.000  O
  O69      1.0000 0.73998  0.26002  0.79813  Biso   1.000  O
  O70      1.0000 0.76002  0.23998  0.29813  Biso   1.000  O
  O71      1.0000 0.26002  0.28556  0.79813  Biso   1.000  O
  O72      1.0000 0.23998  0.21444  0.29813  Biso   1.000  O
  O73      1.0000 0.73998  0.71444  0.20187  Biso   1.000  O
  O74      1.0000 0.76002  0.78556  0.70187  Biso   1.000  O
  O75      1.0000 0.26002  0.73998  0.20187  Biso   1.000  O
  O76      1.0000 0.23998  0.76002  0.70187  Biso   1.000  O
  O77      1.0000 0.71444  0.28556  0.20187  Biso   1.000  O
  O78      1.0000 0.78556  0.21444  0.70187  Biso   1.000  O
  O79      1.0000 0.28556  0.26002  0.20187  Biso   1.000  O
  O80      1.0000 0.21444  0.23998  0.70187  Biso   1.000  O
