data_image0
_cell_length_a       7.8528
_cell_length_b       7.8528
_cell_length_c       30.3622
_cell_angle_alpha    90
_cell_angle_beta     90
_cell_angle_gamma    90

_symmetry_space_group_name_H-M    "P 1"
_symmetry_int_tables_number       1

loop_
  _symmetry_equiv_pos_as_xyz
  'x, y, z'

loop_
  _atom_site_label
  _atom_site_occupancy
  _atom_site_fract_x
  _atom_site_fract_y
  _atom_site_fract_z
  _atom_site_thermal_displace_type
  _atom_site_B_iso_or_equiv
  _atom_site_type_symbol
  K1       1.0000 0.67930  0.32070  0.11811  Biso   1.000  K
  K2       1.0000 0.67930  0.32070  0.38189  Biso   1.000  K
  K3       1.0000 0.17930  0.17930  0.00000  Biso   1.000  K
  K4       1.0000 0.17930  0.17930  0.50000  Biso   1.000  K
  K5       1.0000 0.82070  0.82070  0.00000  Biso   1.000  K
  K6       1.0000 0.82070  0.82070  0.50000  Biso   1.000  K
  K7       1.0000 0.32070  0.67930  0.88189  Biso   1.000  K
  K8       1.0000 0.32070  0.67930  0.61811  Biso   1.000  K
  Pb1      1.0000 0.74965  0.25035  0.83023  Biso   1.000  Pb
  Pb2      1.0000 0.74965  0.25035  0.31651  Biso   1.000  Pb
  Pb3      1.0000 0.24965  0.24965  0.82337  Biso   1.000  Pb
  Pb4      1.0000 0.24965  0.24965  0.32337  Biso   1.000  Pb
  Pb5      1.0000 0.75035  0.75035  0.82337  Biso   1.000  Pb
  Pb6      1.0000 0.75035  0.75035  0.32337  Biso   1.000  Pb
  Pb7      1.0000 0.25035  0.74965  0.81651  Biso   1.000  Pb
  Pb8      1.0000 0.25035  0.74965  0.33023  Biso   1.000  Pb
  Pb9      1.0000 0.24965  0.24965  0.67663  Biso   1.000  Pb
  Pb10     1.0000 0.24965  0.24965  0.17663  Biso   1.000  Pb
  Pb11     1.0000 0.74965  0.25035  0.66977  Biso   1.000  Pb
  Pb12     1.0000 0.74965  0.25035  0.18349  Biso   1.000  Pb
  Pb13     1.0000 0.25035  0.74965  0.68349  Biso   1.000  Pb
  Pb14     1.0000 0.25035  0.74965  0.16977  Biso   1.000  Pb
  Pb15     1.0000 0.75035  0.75035  0.67663  Biso   1.000  Pb
  Pb16     1.0000 0.75035  0.75035  0.17663  Biso   1.000  Pb
  Nb1      1.0000 0.99821  0.00179  0.75000  Biso   1.000  Nb
  Nb2      1.0000 0.00179  0.99821  0.25000  Biso   1.000  Nb
  Nb3      1.0000 0.50179  0.00179  0.75000  Biso   1.000  Nb
  Nb4      1.0000 0.49821  0.99821  0.25000  Biso   1.000  Nb
  Nb5      1.0000 0.99821  0.49821  0.75000  Biso   1.000  Nb
  Nb6      1.0000 0.00179  0.50179  0.25000  Biso   1.000  Nb
  Nb7      1.0000 0.50179  0.49821  0.75000  Biso   1.000  Nb
  Nb8      1.0000 0.49821  0.50179  0.25000  Biso   1.000  Nb
  Ta1      1.0000 0.00526  0.99474  0.89358  Biso   1.000  Ta
  Ta2      1.0000 0.99474  0.00526  0.39358  Biso   1.000  Ta
  Ta3      1.0000 0.49474  0.99474  0.89358  Biso   1.000  Ta
  Ta4      1.0000 0.50526  0.00526  0.39358  Biso   1.000  Ta
  Ta5      1.0000 0.00526  0.50526  0.89358  Biso   1.000  Ta
  Ta6      1.0000 0.99474  0.49474  0.39358  Biso   1.000  Ta
  Ta7      1.0000 0.49474  0.50526  0.89358  Biso   1.000  Ta
  Ta8      1.0000 0.50526  0.49474  0.39358  Biso   1.000  Ta
  Ta9      1.0000 0.00526  0.99474  0.60642  Biso   1.000  Ta
  Ta10     1.0000 0.99474  0.00526  0.10642  Biso   1.000  Ta
  Ta11     1.0000 0.49474  0.99474  0.60642  Biso   1.000  Ta
  Ta12     1.0000 0.50526  0.00526  0.10642  Biso   1.000  Ta
  Ta13     1.0000 0.00526  0.50526  0.60642  Biso   1.000  Ta
  Ta14     1.0000 0.99474  0.49474  0.10642  Biso   1.000  Ta
  Ta15     1.0000 0.49474  0.50526  0.60642  Biso   1.000  Ta
  Ta16     1.0000 0.50526  0.49474  0.10642  Biso   1.000  Ta
  O1       1.0000 0.75000  0.99926  0.75000  Biso   1.000  O
  O2       1.0000 0.75000  0.00074  0.25000  Biso   1.000  O
  O3       1.0000 0.25000  0.99926  0.75000  Biso   1.000  O
  O4       1.0000 0.25000  0.00074  0.25000  Biso   1.000  O
  O5       1.0000 0.75000  0.50074  0.75000  Biso   1.000  O
  O6       1.0000 0.75000  0.49926  0.25000  Biso   1.000  O
  O7       1.0000 0.25000  0.50074  0.75000  Biso   1.000  O
  O8       1.0000 0.25000  0.49926  0.25000  Biso   1.000  O
  O9       1.0000 0.00074  0.75000  0.75000  Biso   1.000  O
  O10      1.0000 0.99926  0.75000  0.25000  Biso   1.000  O
  O11      1.0000 0.49926  0.75000  0.75000  Biso   1.000  O
  O12      1.0000 0.50074  0.75000  0.25000  Biso   1.000  O
  O13      1.0000 0.00074  0.25000  0.75000  Biso   1.000  O
  O14      1.0000 0.99926  0.25000  0.25000  Biso   1.000  O
  O15      1.0000 0.49926  0.25000  0.75000  Biso   1.000  O
  O16      1.0000 0.50074  0.25000  0.25000  Biso   1.000  O
  O17      1.0000 0.99400  0.00600  0.81512  Biso   1.000  O
  O18      1.0000 0.00600  0.99400  0.31512  Biso   1.000  O
  O19      1.0000 0.50600  0.00600  0.81512  Biso   1.000  O
  O20      1.0000 0.49400  0.99400  0.31512  Biso   1.000  O
  O21      1.0000 0.99400  0.49400  0.81512  Biso   1.000  O
  O22      1.0000 0.00600  0.50600  0.31512  Biso   1.000  O
  O23      1.0000 0.50600  0.49400  0.81512  Biso   1.000  O
  O24      1.0000 0.49400  0.50600  0.31512  Biso   1.000  O
  O25      1.0000 0.99400  0.00600  0.68488  Biso   1.000  O
  O26      1.0000 0.00600  0.99400  0.18488  Biso   1.000  O
  O27      1.0000 0.50600  0.00600  0.68488  Biso   1.000  O
  O28      1.0000 0.49400  0.99400  0.18488  Biso   1.000  O
  O29      1.0000 0.99400  0.49400  0.68488  Biso   1.000  O
  O30      1.0000 0.00600  0.50600  0.18488  Biso   1.000  O
  O31      1.0000 0.50600  0.49400  0.68488  Biso   1.000  O
  O32      1.0000 0.49400  0.50600  0.18488  Biso   1.000  O
  O33      1.0000 0.75000  0.99824  0.89368  Biso   1.000  O
  O34      1.0000 0.75000  0.00097  0.36868  Biso   1.000  O
  O35      1.0000 0.25000  0.99903  0.86868  Biso   1.000  O
  O36      1.0000 0.25000  0.00176  0.39368  Biso   1.000  O
  O37      1.0000 0.75000  0.50097  0.89368  Biso   1.000  O
  O38      1.0000 0.75000  0.49824  0.36868  Biso   1.000  O
  O39      1.0000 0.25000  0.50176  0.86868  Biso   1.000  O
  O40      1.0000 0.25000  0.49903  0.39368  Biso   1.000  O
  O41      1.0000 0.25000  0.99903  0.63132  Biso   1.000  O
  O42      1.0000 0.25000  0.00176  0.10632  Biso   1.000  O
  O43      1.0000 0.75000  0.99824  0.60632  Biso   1.000  O
  O44      1.0000 0.75000  0.00097  0.13132  Biso   1.000  O
  O45      1.0000 0.25000  0.50176  0.63132  Biso   1.000  O
  O46      1.0000 0.25000  0.49903  0.10632  Biso   1.000  O
  O47      1.0000 0.75000  0.50097  0.60632  Biso   1.000  O
  O48      1.0000 0.75000  0.49824  0.13132  Biso   1.000  O
  O49      1.0000 0.00097  0.75000  0.63132  Biso   1.000  O
  O50      1.0000 0.99824  0.75000  0.10632  Biso   1.000  O
  O51      1.0000 0.49824  0.75000  0.63132  Biso   1.000  O
  O52      1.0000 0.50097  0.75000  0.10632  Biso   1.000  O
  O53      1.0000 0.00176  0.25000  0.60632  Biso   1.000  O
  O54      1.0000 0.99903  0.25000  0.13132  Biso   1.000  O
  O55      1.0000 0.49903  0.25000  0.60632  Biso   1.000  O
  O56      1.0000 0.50176  0.25000  0.13132  Biso   1.000  O
  O57      1.0000 0.00097  0.75000  0.86868  Biso   1.000  O
  O58      1.0000 0.99824  0.75000  0.39368  Biso   1.000  O
  O59      1.0000 0.49824  0.75000  0.86868  Biso   1.000  O
  O60      1.0000 0.50097  0.75000  0.39368  Biso   1.000  O
  O61      1.0000 0.00176  0.25000  0.89368  Biso   1.000  O
  O62      1.0000 0.99903  0.25000  0.36868  Biso   1.000  O
  O63      1.0000 0.49903  0.25000  0.89368  Biso   1.000  O
  O64      1.0000 0.50176  0.25000  0.36868  Biso   1.000  O
  O65      1.0000 0.02279  0.97721  0.95187  Biso   1.000  O
  O66      1.0000 0.97721  0.02279  0.45187  Biso   1.000  O
  O67      1.0000 0.47721  0.97721  0.95187  Biso   1.000  O
  O68      1.0000 0.52279  0.02279  0.45187  Biso   1.000  O
  O69      1.0000 0.02279  0.52279  0.95187  Biso   1.000  O
  O70      1.0000 0.97721  0.47721  0.45187  Biso   1.000  O
  O71      1.0000 0.47721  0.52279  0.95187  Biso   1.000  O
  O72      1.0000 0.52279  0.47721  0.45187  Biso   1.000  O
  O73      1.0000 0.02279  0.97721  0.54813  Biso   1.000  O
  O74      1.0000 0.97721  0.02279  0.04813  Biso   1.000  O
  O75      1.0000 0.47721  0.97721  0.54813  Biso   1.000  O
  O76      1.0000 0.52279  0.02279  0.04813  Biso   1.000  O
  O77      1.0000 0.02279  0.52279  0.54813  Biso   1.000  O
  O78      1.0000 0.97721  0.47721  0.04813  Biso   1.000  O
  O79      1.0000 0.47721  0.52279  0.54813  Biso   1.000  O
  O80      1.0000 0.52279  0.47721  0.04813  Biso   1.000  O
