data_image0
_cell_length_a       15.1811
_cell_length_b       3.9264
_cell_length_c       7.8528
_cell_angle_alpha    90
_cell_angle_beta     90
_cell_angle_gamma    90

_symmetry_space_group_name_H-M    "P 1"
_symmetry_int_tables_number       1

loop_
  _symmetry_equiv_pos_as_xyz
  'x, y, z'

loop_
  _atom_site_label
  _atom_site_occupancy
  _atom_site_fract_x
  _atom_site_fract_y
  _atom_site_fract_z
  _atom_site_thermal_displace_type
  _atom_site_B_iso_or_equiv
  _atom_site_type_symbol
  K1       1.0000 0.50000  0.14141  0.25000  Biso   1.000  K
  K2       1.0000 0.50000  0.85859  0.75000  Biso   1.000  K
  Pb1      1.0000 0.14674  0.00069  0.23271  Biso   1.000  Pb
  Pb2      1.0000 0.14674  0.99931  0.73271  Biso   1.000  Pb
  Pb3      1.0000 0.85326  0.99931  0.73271  Biso   1.000  Pb
  Pb4      1.0000 0.85326  0.00069  0.23271  Biso   1.000  Pb
  Nb1      1.0000 0.00000  0.50000  0.98320  Biso   1.000  Nb
  Nb2      1.0000 0.00000  0.50000  0.48320  Biso   1.000  Nb
  Ta1      1.0000 0.28716  0.50000  0.01222  Biso   1.000  Ta
  Ta2      1.0000 0.28716  0.50000  0.51222  Biso   1.000  Ta
  Ta3      1.0000 0.71284  0.50000  0.01222  Biso   1.000  Ta
  Ta4      1.0000 0.71284  0.50000  0.51222  Biso   1.000  Ta
  O1       1.0000 0.00000  0.50000  0.26979  Biso   1.000  O
  O2       1.0000 0.00000  0.50000  0.76979  Biso   1.000  O
  O3       1.0000 0.00000  0.00000  0.04185  Biso   1.000  O
  O4       1.0000 0.00000  0.00000  0.54185  Biso   1.000  O
  O5       1.0000 0.13024  0.50000  0.02308  Biso   1.000  O
  O6       1.0000 0.13024  0.50000  0.52308  Biso   1.000  O
  O7       1.0000 0.86976  0.50000  0.02308  Biso   1.000  O
  O8       1.0000 0.86976  0.50000  0.52308  Biso   1.000  O
  O9       1.0000 0.26236  0.49921  0.25973  Biso   1.000  O
  O10      1.0000 0.26236  0.50079  0.75973  Biso   1.000  O
  O11      1.0000 0.73764  0.50079  0.75973  Biso   1.000  O
  O12      1.0000 0.73764  0.49921  0.25973  Biso   1.000  O
  O13      1.0000 0.73764  0.00000  0.01255  Biso   1.000  O
  O14      1.0000 0.73764  0.00000  0.51255  Biso   1.000  O
  O15      1.0000 0.26236  0.00000  0.01255  Biso   1.000  O
  O16      1.0000 0.26236  0.00000  0.51255  Biso   1.000  O
  O17      1.0000 0.40374  0.50000  0.00740  Biso   1.000  O
  O18      1.0000 0.40374  0.50000  0.50740  Biso   1.000  O
  O19      1.0000 0.59626  0.50000  0.00740  Biso   1.000  O
  O20      1.0000 0.59626  0.50000  0.50740  Biso   1.000  O
