data_image0
_cell_length_a       3.9264
_cell_length_b       30.3622
_cell_length_c       7.8528
_cell_angle_alpha    90
_cell_angle_beta     90
_cell_angle_gamma    90

_symmetry_space_group_name_H-M    "P 1"
_symmetry_int_tables_number       1

loop_
  _symmetry_equiv_pos_as_xyz
  'x, y, z'

loop_
  _atom_site_label
  _atom_site_occupancy
  _atom_site_fract_x
  _atom_site_fract_y
  _atom_site_fract_z
  _atom_site_thermal_displace_type
  _atom_site_B_iso_or_equiv
  _atom_site_type_symbol
  K1       1.0000 0.24034  0.75000  0.79947  Biso   1.000  K
  K2       1.0000 0.04247  0.25000  0.70053  Biso   1.000  K
  K3       1.0000 0.95753  0.75000  0.29947  Biso   1.000  K
  K4       1.0000 0.75966  0.25000  0.20053  Biso   1.000  K
  Pb1      1.0000 0.99880  0.92663  0.74906  Biso   1.000  Pb
  Pb2      1.0000 0.00258  0.42663  0.75094  Biso   1.000  Pb
  Pb3      1.0000 0.99742  0.92663  0.24906  Biso   1.000  Pb
  Pb4      1.0000 0.00120  0.42663  0.25094  Biso   1.000  Pb
  Pb5      1.0000 0.00120  0.07337  0.25094  Biso   1.000  Pb
  Pb6      1.0000 0.99742  0.57337  0.24906  Biso   1.000  Pb
  Pb7      1.0000 0.00258  0.07337  0.75094  Biso   1.000  Pb
  Pb8      1.0000 0.99880  0.57337  0.74906  Biso   1.000  Pb
  Nb1      1.0000 0.50000  0.00000  0.50000  Biso   1.000  Nb
  Nb2      1.0000 0.50000  0.50000  0.50000  Biso   1.000  Nb
  Nb3      1.0000 0.50000  0.00000  0.00000  Biso   1.000  Nb
  Nb4      1.0000 0.50000  0.50000  0.00000  Biso   1.000  Nb
  Ta1      1.0000 0.49447  0.85642  0.49723  Biso   1.000  Ta
  Ta2      1.0000 0.50553  0.35642  0.50277  Biso   1.000  Ta
  Ta3      1.0000 0.49447  0.85642  0.99723  Biso   1.000  Ta
  Ta4      1.0000 0.50553  0.35642  0.00277  Biso   1.000  Ta
  Ta5      1.0000 0.50553  0.14358  0.50277  Biso   1.000  Ta
  Ta6      1.0000 0.49447  0.64358  0.49723  Biso   1.000  Ta
  Ta7      1.0000 0.50553  0.14358  0.00277  Biso   1.000  Ta
  Ta8      1.0000 0.49447  0.64358  0.99723  Biso   1.000  Ta
  O1       1.0000 0.50000  0.00000  0.75000  Biso   1.000  O
  O2       1.0000 0.50000  0.50000  0.75000  Biso   1.000  O
  O3       1.0000 0.50000  0.00000  0.25000  Biso   1.000  O
  O4       1.0000 0.50000  0.50000  0.25000  Biso   1.000  O
  O5       1.0000 0.00000  0.00000  0.50000  Biso   1.000  O
  O6       1.0000 0.00000  0.50000  0.50000  Biso   1.000  O
  O7       1.0000 0.00000  0.00000  0.00000  Biso   1.000  O
  O8       1.0000 0.00000  0.50000  0.00000  Biso   1.000  O
  O9       1.0000 0.49876  0.93488  0.49938  Biso   1.000  O
  O10      1.0000 0.50124  0.43488  0.50062  Biso   1.000  O
  O11      1.0000 0.49876  0.93488  0.99938  Biso   1.000  O
  O12      1.0000 0.50124  0.43488  0.00062  Biso   1.000  O
  O13      1.0000 0.50124  0.06512  0.50062  Biso   1.000  O
  O14      1.0000 0.49876  0.56512  0.49938  Biso   1.000  O
  O15      1.0000 0.50124  0.06512  0.00062  Biso   1.000  O
  O16      1.0000 0.49876  0.56512  0.99938  Biso   1.000  O
  O17      1.0000 0.49726  0.86882  0.74903  Biso   1.000  O
  O18      1.0000 0.50117  0.36882  0.75097  Biso   1.000  O
  O19      1.0000 0.49883  0.86882  0.24903  Biso   1.000  O
  O20      1.0000 0.50274  0.36882  0.25097  Biso   1.000  O
  O21      1.0000 0.50274  0.13118  0.25097  Biso   1.000  O
  O22      1.0000 0.49883  0.63118  0.24903  Biso   1.000  O
  O23      1.0000 0.50117  0.13118  0.75097  Biso   1.000  O
  O24      1.0000 0.49726  0.63118  0.74903  Biso   1.000  O
  O25      1.0000 0.00193  0.13118  0.50098  Biso   1.000  O
  O26      1.0000 0.99807  0.63118  0.49902  Biso   1.000  O
  O27      1.0000 0.00193  0.13118  0.00098  Biso   1.000  O
  O28      1.0000 0.99807  0.63118  0.99902  Biso   1.000  O
  O29      1.0000 0.99807  0.86882  0.49902  Biso   1.000  O
  O30      1.0000 0.00193  0.36882  0.50098  Biso   1.000  O
  O31      1.0000 0.99807  0.86882  0.99902  Biso   1.000  O
  O32      1.0000 0.00193  0.36882  0.00098  Biso   1.000  O
  O33      1.0000 0.49198  0.79813  0.49599  Biso   1.000  O
  O34      1.0000 0.50802  0.29813  0.50401  Biso   1.000  O
  O35      1.0000 0.49198  0.79813  0.99599  Biso   1.000  O
  O36      1.0000 0.50802  0.29813  0.00401  Biso   1.000  O
  O37      1.0000 0.50802  0.20187  0.50401  Biso   1.000  O
  O38      1.0000 0.49198  0.70187  0.49599  Biso   1.000  O
  O39      1.0000 0.50802  0.20187  0.00401  Biso   1.000  O
  O40      1.0000 0.49198  0.70187  0.99599  Biso   1.000  O
