data_image0
_cell_length_a       15.6806
_cell_length_b       15.6806
_cell_length_c       7.8528
_cell_angle_alpha    90
_cell_angle_beta     90
_cell_angle_gamma    150.998

_symmetry_space_group_name_H-M    "P 1"
_symmetry_int_tables_number       1

loop_
  _symmetry_equiv_pos_as_xyz
  'x, y, z'

loop_
  _atom_site_label
  _atom_site_occupancy
  _atom_site_fract_x
  _atom_site_fract_y
  _atom_site_fract_z
  _atom_site_thermal_displace_type
  _atom_site_B_iso_or_equiv
  _atom_site_type_symbol
  K1       1.0000 0.78909  0.71091  0.75000  Biso   1.000  K
  K2       1.0000 0.28909  0.21091  0.75000  Biso   1.000  K
  K3       1.0000 0.71091  0.78909  0.25000  Biso   1.000  K
  K4       1.0000 0.21091  0.28909  0.25000  Biso   1.000  K
  Pb1      1.0000 0.59893  0.94606  0.77250  Biso   1.000  Pb
  Pb2      1.0000 0.05394  0.40107  0.72750  Biso   1.000  Pb
  Pb3      1.0000 0.54781  0.90720  0.22750  Biso   1.000  Pb
  Pb4      1.0000 0.09280  0.45219  0.27250  Biso   1.000  Pb
  Pb5      1.0000 0.40107  0.05394  0.22750  Biso   1.000  Pb
  Pb6      1.0000 0.94606  0.59893  0.27250  Biso   1.000  Pb
  Pb7      1.0000 0.45219  0.09280  0.77250  Biso   1.000  Pb
  Pb8      1.0000 0.90720  0.54781  0.72750  Biso   1.000  Pb
  Nb1      1.0000 0.74789  0.24789  0.99789  Biso   1.000  Nb
  Nb2      1.0000 0.25211  0.75211  0.00211  Biso   1.000  Nb
  Nb3      1.0000 0.75211  0.25211  0.50211  Biso   1.000  Nb
  Nb4      1.0000 0.24789  0.74789  0.49789  Biso   1.000  Nb
  Ta1      1.0000 0.89983  0.11267  0.01113  Biso   1.000  Ta
  Ta2      1.0000 0.38733  0.60017  0.99864  Biso   1.000  Ta
  Ta3      1.0000 0.88733  0.10017  0.48887  Biso   1.000  Ta
  Ta4      1.0000 0.39983  0.61267  0.50136  Biso   1.000  Ta
  Ta5      1.0000 0.61267  0.39983  0.00136  Biso   1.000  Ta
  Ta6      1.0000 0.10017  0.88733  0.98887  Biso   1.000  Ta
  Ta7      1.0000 0.60017  0.38733  0.49864  Biso   1.000  Ta
  Ta8      1.0000 0.11267  0.89983  0.51113  Biso   1.000  Ta
  O1       1.0000 0.72851  0.27149  0.75000  Biso   1.000  O
  O2       1.0000 0.22851  0.77149  0.75000  Biso   1.000  O
  O3       1.0000 0.77149  0.22851  0.25000  Biso   1.000  O
  O4       1.0000 0.27149  0.72851  0.25000  Biso   1.000  O
  O5       1.0000 0.00000  0.50000  0.00000  Biso   1.000  O
  O6       1.0000 0.50000  0.00000  0.00000  Biso   1.000  O
  O7       1.0000 1.00000  0.50000  0.50000  Biso   1.000  O
  O8       1.0000 0.50000  0.00000  0.50000  Biso   1.000  O
  O9       1.0000 0.79568  0.16544  0.96111  Biso   1.000  O
  O10      1.0000 0.33456  0.70432  1.00000  Biso   1.000  O
  O11      1.0000 0.83456  0.20432  0.53889  Biso   1.000  O
  O12      1.0000 0.29568  0.66544  0.50000  Biso   1.000  O
  O13      1.0000 0.66544  0.29568  0.00000  Biso   1.000  O
  O14      1.0000 0.20432  0.83456  0.03889  Biso   1.000  O
  O15      1.0000 0.70432  0.33456  0.50000  Biso   1.000  O
  O16      1.0000 0.16544  0.79568  0.46111  Biso   1.000  O
  O17      1.0000 0.91565  0.08435  0.75000  Biso   1.000  O
  O18      1.0000 0.38689  0.61311  0.75000  Biso   1.000  O
  O19      1.0000 0.84671  0.15329  0.25000  Biso   1.000  O
  O20      1.0000 0.37547  0.62453  0.25000  Biso   1.000  O
  O21      1.0000 0.61311  0.38689  0.25000  Biso   1.000  O
  O22      1.0000 0.08435  0.91565  0.25000  Biso   1.000  O
  O23      1.0000 0.62453  0.37547  0.75000  Biso   1.000  O
  O24      1.0000 0.15329  0.84671  0.75000  Biso   1.000  O
  O25      1.0000 0.88320  0.61680  0.99750  Biso   1.000  O
  O26      1.0000 0.35444  0.14556  0.99750  Biso   1.000  O
  O27      1.0000 0.85444  0.64556  0.50250  Biso   1.000  O
  O28      1.0000 0.38320  0.11680  0.50250  Biso   1.000  O
  O29      1.0000 0.11680  0.38320  0.00250  Biso   1.000  O
  O30      1.0000 0.64556  0.85444  0.00250  Biso   1.000  O
  O31      1.0000 0.14556  0.35444  0.49750  Biso   1.000  O
  O32      1.0000 0.61680  0.88320  0.49750  Biso   1.000  O
  O33      1.0000 0.96272  0.05898  0.03699  Biso   1.000  O
  O34      1.0000 0.44102  0.53728  0.01529  Biso   1.000  O
  O35      1.0000 0.94102  0.03728  0.46301  Biso   1.000  O
  O36      1.0000 0.46272  0.55898  0.48471  Biso   1.000  O
  O37      1.0000 0.55898  0.46272  0.98471  Biso   1.000  O
  O38      1.0000 0.03728  0.94102  0.96301  Biso   1.000  O
  O39      1.0000 0.53728  0.44102  0.51529  Biso   1.000  O
  O40      1.0000 0.05898  0.96272  0.53699  Biso   1.000  O
