data_image0
_cell_length_a       3.9264
_cell_length_b       30.3622
_cell_length_c       7.8528
_cell_angle_alpha    90
_cell_angle_beta     90
_cell_angle_gamma    90

_symmetry_space_group_name_H-M    "P 1"
_symmetry_int_tables_number       1

loop_
  _symmetry_equiv_pos_as_xyz
  'x, y, z'

loop_
  _atom_site_label
  _atom_site_occupancy
  _atom_site_fract_x
  _atom_site_fract_y
  _atom_site_fract_z
  _atom_site_thermal_displace_type
  _atom_site_B_iso_or_equiv
  _atom_site_type_symbol
  K1       1.0000 0.50000  0.46091  0.25000  Biso   1.000  K
  K2       1.0000 0.50000  0.96091  0.25000  Biso   1.000  K
  K3       1.0000 0.50000  0.53909  0.75000  Biso   1.000  K
  K4       1.0000 0.50000  0.03909  0.75000  Biso   1.000  K
  Pb1      1.0000 0.50966  0.67357  0.25483  Biso   1.000  Pb
  Pb2      1.0000 0.49034  0.17357  0.24517  Biso   1.000  Pb
  Pb3      1.0000 0.50966  0.67969  0.75483  Biso   1.000  Pb
  Pb4      1.0000 0.49034  0.17969  0.74517  Biso   1.000  Pb
  Pb5      1.0000 0.50966  0.82643  0.75483  Biso   1.000  Pb
  Pb6      1.0000 0.49034  0.32643  0.74517  Biso   1.000  Pb
  Pb7      1.0000 0.50966  0.82031  0.25483  Biso   1.000  Pb
  Pb8      1.0000 0.49034  0.32031  0.24517  Biso   1.000  Pb
  Nb1      1.0000 0.00000  0.75000  0.00000  Biso   1.000  Nb
  Nb2      1.0000 0.00000  0.25000  0.00000  Biso   1.000  Nb
  Nb3      1.0000 0.00000  0.75000  0.50000  Biso   1.000  Nb
  Nb4      1.0000 0.00000  0.25000  0.50000  Biso   1.000  Nb
  Ta1      1.0000 0.04012  0.60642  0.01518  Biso   1.000  Ta
  Ta2      1.0000 0.95988  0.10642  0.97505  Biso   1.000  Ta
  Ta3      1.0000 0.04012  0.60642  0.52495  Biso   1.000  Ta
  Ta4      1.0000 0.95988  0.10642  0.48482  Biso   1.000  Ta
  Ta5      1.0000 0.04012  0.89358  0.02495  Biso   1.000  Ta
  Ta6      1.0000 0.95988  0.39358  0.98482  Biso   1.000  Ta
  Ta7      1.0000 0.04012  0.89358  0.51518  Biso   1.000  Ta
  Ta8      1.0000 0.95988  0.39358  0.47505  Biso   1.000  Ta
  O1       1.0000 0.04836  0.77149  0.26300  Biso   1.000  O
  O2       1.0000 0.95164  0.27149  0.23700  Biso   1.000  O
  O3       1.0000 0.04836  0.72851  0.76300  Biso   1.000  O
  O4       1.0000 0.95164  0.22851  0.73700  Biso   1.000  O
  O5       1.0000 0.52601  0.75000  0.02418  Biso   1.000  O
  O6       1.0000 0.47399  0.25000  0.97582  Biso   1.000  O
  O7       1.0000 0.52601  0.75000  0.52418  Biso   1.000  O
  O8       1.0000 0.47399  0.25000  0.47582  Biso   1.000  O
  O9       1.0000 0.03009  0.68488  0.03449  Biso   1.000  O
  O10      1.0000 0.96991  0.18488  0.00440  Biso   1.000  O
  O11      1.0000 0.03009  0.68488  0.49560  Biso   1.000  O
  O12      1.0000 0.96991  0.18488  0.46551  Biso   1.000  O
  O13      1.0000 0.03009  0.81512  0.99560  Biso   1.000  O
  O14      1.0000 0.96991  0.31512  0.96551  Biso   1.000  O
  O15      1.0000 0.03009  0.81512  0.53449  Biso   1.000  O
  O16      1.0000 0.96991  0.31512  0.50440  Biso   1.000  O
  O17      1.0000 0.01876  0.59873  0.25806  Biso   1.000  O
  O18      1.0000 0.98124  0.09873  0.24194  Biso   1.000  O
  O19      1.0000 0.01876  0.63891  0.75806  Biso   1.000  O
  O20      1.0000 0.98124  0.13891  0.74194  Biso   1.000  O
  O21      1.0000 0.01876  0.90127  0.75806  Biso   1.000  O
  O22      1.0000 0.98124  0.40127  0.74194  Biso   1.000  O
  O23      1.0000 0.01876  0.86109  0.25806  Biso   1.000  O
  O24      1.0000 0.98124  0.36109  0.24194  Biso   1.000  O
  O25      1.0000 0.51613  0.88118  0.01188  Biso   1.000  O
  O26      1.0000 0.48387  0.38118  0.99311  Biso   1.000  O
  O27      1.0000 0.51613  0.88118  0.50689  Biso   1.000  O
  O28      1.0000 0.48387  0.38118  0.48812  Biso   1.000  O
  O29      1.0000 0.51613  0.61882  0.00689  Biso   1.000  O
  O30      1.0000 0.48387  0.11882  0.98812  Biso   1.000  O
  O31      1.0000 0.51613  0.61882  0.51188  Biso   1.000  O
  O32      1.0000 0.48387  0.11882  0.49311  Biso   1.000  O
  O33      1.0000 0.01649  0.54813  0.98211  Biso   1.000  O
  O34      1.0000 0.98351  0.04813  0.96562  Biso   1.000  O
  O35      1.0000 0.01649  0.54813  0.53438  Biso   1.000  O
  O36      1.0000 0.98351  0.04813  0.51789  Biso   1.000  O
  O37      1.0000 0.01649  0.95187  0.03438  Biso   1.000  O
  O38      1.0000 0.98351  0.45187  0.01789  Biso   1.000  O
  O39      1.0000 0.01649  0.95187  0.48211  Biso   1.000  O
  O40      1.0000 0.98351  0.45187  0.46562  Biso   1.000  O
