data_image0
_cell_length_a       7.8528
_cell_length_b       7.8528
_cell_length_c       30.3622
_cell_angle_alpha    90
_cell_angle_beta     90
_cell_angle_gamma    90

_symmetry_space_group_name_H-M    "P 1"
_symmetry_int_tables_number       1

loop_
  _symmetry_equiv_pos_as_xyz
  'x, y, z'

loop_
  _atom_site_label
  _atom_site_occupancy
  _atom_site_fract_x
  _atom_site_fract_y
  _atom_site_fract_z
  _atom_site_thermal_displace_type
  _atom_site_B_iso_or_equiv
  _atom_site_type_symbol
  K1       1.0000 0.29947  0.70053  0.67182  Biso   1.000  K
  K2       1.0000 0.20053  0.79947  0.17182  Biso   1.000  K
  K3       1.0000 0.79947  0.70053  0.75000  Biso   1.000  K
  K4       1.0000 0.70053  0.79947  0.25000  Biso   1.000  K
  K5       1.0000 0.29947  0.20053  0.75000  Biso   1.000  K
  K6       1.0000 0.20053  0.29947  0.25000  Biso   1.000  K
  K7       1.0000 0.79947  0.20053  0.82818  Biso   1.000  K
  K8       1.0000 0.70053  0.29947  0.32818  Biso   1.000  K
  Pb1      1.0000 0.24906  0.75094  0.92050  Biso   1.000  Pb
  Pb2      1.0000 0.25094  0.74906  0.42050  Biso   1.000  Pb
  Pb3      1.0000 0.74906  0.75094  0.92663  Biso   1.000  Pb
  Pb4      1.0000 0.75094  0.74906  0.42663  Biso   1.000  Pb
  Pb5      1.0000 0.24906  0.25094  0.92663  Biso   1.000  Pb
  Pb6      1.0000 0.25094  0.24906  0.42663  Biso   1.000  Pb
  Pb7      1.0000 0.74906  0.25094  0.93276  Biso   1.000  Pb
  Pb8      1.0000 0.75094  0.24906  0.43276  Biso   1.000  Pb
  Pb9      1.0000 0.75094  0.74906  0.07337  Biso   1.000  Pb
  Pb10     1.0000 0.74906  0.75094  0.57337  Biso   1.000  Pb
  Pb11     1.0000 0.25094  0.74906  0.06724  Biso   1.000  Pb
  Pb12     1.0000 0.24906  0.75094  0.56724  Biso   1.000  Pb
  Pb13     1.0000 0.75094  0.24906  0.07950  Biso   1.000  Pb
  Pb14     1.0000 0.74906  0.25094  0.57950  Biso   1.000  Pb
  Pb15     1.0000 0.25094  0.24906  0.07337  Biso   1.000  Pb
  Pb16     1.0000 0.24906  0.25094  0.57337  Biso   1.000  Pb
  Nb1      1.0000 0.00000  0.50000  0.00000  Biso   1.000  Nb
  Nb2      1.0000 0.00000  0.50000  0.50000  Biso   1.000  Nb
  Nb3      1.0000 0.50000  0.50000  0.00000  Biso   1.000  Nb
  Nb4      1.0000 0.50000  0.50000  0.50000  Biso   1.000  Nb
  Nb5      1.0000 0.00000  0.00000  0.00000  Biso   1.000  Nb
  Nb6      1.0000 0.00000  0.00000  0.50000  Biso   1.000  Nb
  Nb7      1.0000 0.50000  0.00000  0.00000  Biso   1.000  Nb
  Nb8      1.0000 0.50000  0.00000  0.50000  Biso   1.000  Nb
  Ta1      1.0000 0.99235  0.49788  0.85642  Biso   1.000  Ta
  Ta2      1.0000 0.99788  0.49235  0.35642  Biso   1.000  Ta
  Ta3      1.0000 0.50212  0.49788  0.85642  Biso   1.000  Ta
  Ta4      1.0000 0.50765  0.49235  0.35642  Biso   1.000  Ta
  Ta5      1.0000 0.99235  0.00765  0.85642  Biso   1.000  Ta
  Ta6      1.0000 0.99788  0.00212  0.35642  Biso   1.000  Ta
  Ta7      1.0000 0.50212  0.00765  0.85642  Biso   1.000  Ta
  Ta8      1.0000 0.50765  0.00212  0.35642  Biso   1.000  Ta
  Ta9      1.0000 0.00765  0.50212  0.14358  Biso   1.000  Ta
  Ta10     1.0000 0.00212  0.50765  0.64358  Biso   1.000  Ta
  Ta11     1.0000 0.49788  0.50212  0.14358  Biso   1.000  Ta
  Ta12     1.0000 0.49235  0.50765  0.64358  Biso   1.000  Ta
  Ta13     1.0000 0.00765  0.99235  0.14358  Biso   1.000  Ta
  Ta14     1.0000 0.00212  0.99788  0.64358  Biso   1.000  Ta
  Ta15     1.0000 0.49788  0.99235  0.14358  Biso   1.000  Ta
  Ta16     1.0000 0.49235  0.99788  0.64358  Biso   1.000  Ta
  O1       1.0000 0.25000  0.50000  0.02149  Biso   1.000  O
  O2       1.0000 0.25000  0.50000  0.52149  Biso   1.000  O
  O3       1.0000 0.75000  0.50000  0.97851  Biso   1.000  O
  O4       1.0000 0.75000  0.50000  0.47851  Biso   1.000  O
  O5       1.0000 0.25000  0.00000  0.02149  Biso   1.000  O
  O6       1.0000 0.25000  0.00000  0.52149  Biso   1.000  O
  O7       1.0000 0.75000  0.00000  0.97851  Biso   1.000  O
  O8       1.0000 0.75000  0.00000  0.47851  Biso   1.000  O
  O9       1.0000 0.00000  0.25000  0.97851  Biso   1.000  O
  O10      1.0000 0.00000  0.25000  0.47851  Biso   1.000  O
  O11      1.0000 0.50000  0.25000  0.97851  Biso   1.000  O
  O12      1.0000 0.50000  0.25000  0.47851  Biso   1.000  O
  O13      1.0000 0.00000  0.75000  0.02149  Biso   1.000  O
  O14      1.0000 0.00000  0.75000  0.52149  Biso   1.000  O
  O15      1.0000 0.50000  0.75000  0.02149  Biso   1.000  O
  O16      1.0000 0.50000  0.75000  0.52149  Biso   1.000  O
  O17      1.0000 0.01882  0.52007  0.93488  Biso   1.000  O
  O18      1.0000 0.02007  0.51882  0.43488  Biso   1.000  O
  O19      1.0000 0.47993  0.52007  0.93488  Biso   1.000  O
  O20      1.0000 0.48118  0.51882  0.43488  Biso   1.000  O
  O21      1.0000 0.01882  0.98118  0.93488  Biso   1.000  O
  O22      1.0000 0.02007  0.97993  0.43488  Biso   1.000  O
  O23      1.0000 0.47993  0.98118  0.93488  Biso   1.000  O
  O24      1.0000 0.48118  0.97993  0.43488  Biso   1.000  O
  O25      1.0000 0.98118  0.47993  0.06512  Biso   1.000  O
  O26      1.0000 0.97993  0.48118  0.56512  Biso   1.000  O
  O27      1.0000 0.52007  0.47993  0.06512  Biso   1.000  O
  O28      1.0000 0.51882  0.48118  0.56512  Biso   1.000  O
  O29      1.0000 0.98118  0.01882  0.06512  Biso   1.000  O
  O30      1.0000 0.97993  0.02007  0.56512  Biso   1.000  O
  O31      1.0000 0.52007  0.01882  0.06512  Biso   1.000  O
  O32      1.0000 0.51882  0.02007  0.56512  Biso   1.000  O
  O33      1.0000 0.24903  0.49848  0.84873  Biso   1.000  O
  O34      1.0000 0.25097  0.49653  0.34873  Biso   1.000  O
  O35      1.0000 0.74903  0.49848  0.88891  Biso   1.000  O
  O36      1.0000 0.75097  0.49653  0.38891  Biso   1.000  O
  O37      1.0000 0.24903  0.00347  0.84873  Biso   1.000  O
  O38      1.0000 0.25097  0.00152  0.34873  Biso   1.000  O
  O39      1.0000 0.74903  0.00347  0.88891  Biso   1.000  O
  O40      1.0000 0.75097  0.00152  0.38891  Biso   1.000  O
  O41      1.0000 0.75097  0.50152  0.15127  Biso   1.000  O
  O42      1.0000 0.74903  0.50347  0.65127  Biso   1.000  O
  O43      1.0000 0.25097  0.50152  0.11109  Biso   1.000  O
  O44      1.0000 0.24903  0.50347  0.61109  Biso   1.000  O
  O45      1.0000 0.75097  0.99653  0.15127  Biso   1.000  O
  O46      1.0000 0.74903  0.99848  0.65127  Biso   1.000  O
  O47      1.0000 0.25097  0.99653  0.11109  Biso   1.000  O
  O48      1.0000 0.24903  0.99848  0.61109  Biso   1.000  O
  O49      1.0000 0.00347  0.24903  0.15127  Biso   1.000  O
  O50      1.0000 0.00152  0.25097  0.65127  Biso   1.000  O
  O51      1.0000 0.49848  0.24903  0.15127  Biso   1.000  O
  O52      1.0000 0.49653  0.25097  0.65127  Biso   1.000  O
  O53      1.0000 0.00347  0.74903  0.11109  Biso   1.000  O
  O54      1.0000 0.00152  0.75097  0.61109  Biso   1.000  O
  O55      1.0000 0.49848  0.74903  0.11109  Biso   1.000  O
  O56      1.0000 0.49653  0.75097  0.61109  Biso   1.000  O
  O57      1.0000 0.99653  0.25097  0.88891  Biso   1.000  O
  O58      1.0000 0.99848  0.24903  0.38891  Biso   1.000  O
  O59      1.0000 0.50152  0.25097  0.88891  Biso   1.000  O
  O60      1.0000 0.50347  0.24903  0.38891  Biso   1.000  O
  O61      1.0000 0.99653  0.75097  0.84873  Biso   1.000  O
  O62      1.0000 0.99848  0.74903  0.34873  Biso   1.000  O
  O63      1.0000 0.50152  0.75097  0.84873  Biso   1.000  O
  O64      1.0000 0.50347  0.74903  0.34873  Biso   1.000  O
  O65      1.0000 0.96986  0.47787  0.79813  Biso   1.000  O
  O66      1.0000 0.97787  0.46986  0.29813  Biso   1.000  O
  O67      1.0000 0.52213  0.47787  0.79813  Biso   1.000  O
  O68      1.0000 0.53014  0.46986  0.29813  Biso   1.000  O
  O69      1.0000 0.96986  0.03014  0.79813  Biso   1.000  O
  O70      1.0000 0.97787  0.02213  0.29813  Biso   1.000  O
  O71      1.0000 0.52213  0.03014  0.79813  Biso   1.000  O
  O72      1.0000 0.53014  0.02213  0.29813  Biso   1.000  O
  O73      1.0000 0.03014  0.52213  0.20187  Biso   1.000  O
  O74      1.0000 0.02213  0.53014  0.70187  Biso   1.000  O
  O75      1.0000 0.47787  0.52213  0.20187  Biso   1.000  O
  O76      1.0000 0.46986  0.53014  0.70187  Biso   1.000  O
  O77      1.0000 0.03014  0.96986  0.20187  Biso   1.000  O
  O78      1.0000 0.02213  0.97787  0.70187  Biso   1.000  O
  O79      1.0000 0.47787  0.96986  0.20187  Biso   1.000  O
  O80      1.0000 0.46986  0.97787  0.70187  Biso   1.000  O
