data_image0
_cell_length_a       3.9264
_cell_length_b       15.1811
_cell_length_c       7.8528
_cell_angle_alpha    90
_cell_angle_beta     90
_cell_angle_gamma    90

_symmetry_space_group_name_H-M    "P 1"
_symmetry_int_tables_number       1

loop_
  _symmetry_equiv_pos_as_xyz
  'x, y, z'

loop_
  _atom_site_label
  _atom_site_occupancy
  _atom_site_fract_x
  _atom_site_fract_y
  _atom_site_fract_z
  _atom_site_thermal_displace_type
  _atom_site_B_iso_or_equiv
  _atom_site_type_symbol
  K1       1.0000 0.00000  0.10911  0.25000  Biso   1.000  K
  K2       1.0000 0.00000  0.89089  0.75000  Biso   1.000  K
  Pb1      1.0000 0.00000  0.82261  0.16357  Biso   1.000  Pb
  Pb2      1.0000 0.00000  0.88391  0.66357  Biso   1.000  Pb
  Pb3      1.0000 0.00000  0.17739  0.66357  Biso   1.000  Pb
  Pb4      1.0000 0.00000  0.11609  0.16357  Biso   1.000  Pb
  Nb1      1.0000 0.50000  0.00000  0.91599  Biso   1.000  Nb
  Nb2      1.0000 0.50000  0.00000  0.41599  Biso   1.000  Nb
  Ta1      1.0000 0.50000  0.71284  0.03667  Biso   1.000  Ta
  Ta2      1.0000 0.50000  0.71284  0.58551  Biso   1.000  Ta
  Ta3      1.0000 0.50000  0.28716  0.08551  Biso   1.000  Ta
  Ta4      1.0000 0.50000  0.28716  0.53667  Biso   1.000  Ta
  O1       1.0000 0.50000  0.21487  0.34893  Biso   1.000  O
  O2       1.0000 0.50000  0.78513  0.84893  Biso   1.000  O
  O3       1.0000 0.00000  0.00000  0.20923  Biso   1.000  O
  O4       1.0000 0.00000  0.00000  0.70923  Biso   1.000  O
  O5       1.0000 0.50000  0.86976  0.21263  Biso   1.000  O
  O6       1.0000 0.50000  0.86976  0.51818  Biso   1.000  O
  O7       1.0000 0.50000  0.13024  0.01818  Biso   1.000  O
  O8       1.0000 0.50000  0.13024  0.71263  Biso   1.000  O
  O9       1.0000 0.50000  0.53675  0.29864  Biso   1.000  O
  O10      1.0000 0.50000  0.93853  0.79864  Biso   1.000  O
  O11      1.0000 0.50000  0.46325  0.79864  Biso   1.000  O
  O12      1.0000 0.50000  0.06147  0.29864  Biso   1.000  O
  O13      1.0000 0.00000  0.26236  0.07525  Biso   1.000  O
  O14      1.0000 0.00000  0.26236  0.55028  Biso   1.000  O
  O15      1.0000 0.00000  0.73764  0.05028  Biso   1.000  O
  O16      1.0000 0.00000  0.73764  0.57525  Biso   1.000  O
  O17      1.0000 0.50000  0.59626  0.90631  Biso   1.000  O
  O18      1.0000 0.50000  0.59626  0.66767  Biso   1.000  O
  O19      1.0000 0.50000  0.40374  0.16767  Biso   1.000  O
  O20      1.0000 0.50000  0.40374  0.40631  Biso   1.000  O
