data_image0
_cell_length_a       15.6806
_cell_length_b       15.6806
_cell_length_c       7.8528
_cell_angle_alpha    90
_cell_angle_beta     90
_cell_angle_gamma    150.998

_symmetry_space_group_name_H-M    "P 1"
_symmetry_int_tables_number       1

loop_
  _symmetry_equiv_pos_as_xyz
  'x, y, z'

loop_
  _atom_site_label
  _atom_site_occupancy
  _atom_site_fract_x
  _atom_site_fract_y
  _atom_site_fract_z
  _atom_site_thermal_displace_type
  _atom_site_B_iso_or_equiv
  _atom_site_type_symbol
  K1       1.0000 0.27962  0.38873  0.83418  Biso   1.000  K
  K2       1.0000 0.61127  0.72038  0.66582  Biso   1.000  K
  K3       1.0000 0.72038  0.61127  0.16582  Biso   1.000  K
  K4       1.0000 0.38873  0.27962  0.33418  Biso   1.000  K
  Pb1      1.0000 0.76847  0.59108  0.67977  Biso   1.000  Pb
  Pb2      1.0000 0.40892  0.23153  0.82023  Biso   1.000  Pb
  Pb3      1.0000 0.87827  0.76218  0.32023  Biso   1.000  Pb
  Pb4      1.0000 0.23782  0.12173  0.17977  Biso   1.000  Pb
  Pb5      1.0000 0.59108  0.76847  0.17977  Biso   1.000  Pb
  Pb6      1.0000 0.23153  0.40892  0.32023  Biso   1.000  Pb
  Pb7      1.0000 0.76218  0.87827  0.82023  Biso   1.000  Pb
  Pb8      1.0000 0.12173  0.23782  0.67977  Biso   1.000  Pb
  Nb1      1.0000 0.00000  0.00000  0.00000  Biso   1.000  Nb
  Nb2      1.0000 0.50000  0.50000  0.00000  Biso   1.000  Nb
  Nb3      1.0000 0.00000  0.00000  0.50000  Biso   1.000  Nb
  Nb4      1.0000 0.50000  0.50000  0.50000  Biso   1.000  Nb
  Ta1      1.0000 0.12743  0.84027  0.00827  Biso   1.000  Ta
  Ta2      1.0000 0.65973  0.37257  0.04058  Biso   1.000  Ta
  Ta3      1.0000 0.15973  0.87257  0.49173  Biso   1.000  Ta
  Ta4      1.0000 0.62743  0.34027  0.45942  Biso   1.000  Ta
  Ta5      1.0000 0.87257  0.15973  0.99173  Biso   1.000  Ta
  Ta6      1.0000 0.34027  0.62743  0.95942  Biso   1.000  Ta
  Ta7      1.0000 0.84027  0.12743  0.50827  Biso   1.000  Ta
  Ta8      1.0000 0.37257  0.65973  0.54058  Biso   1.000  Ta
  O1       1.0000 0.99534  0.00466  0.75000  Biso   1.000  O
  O2       1.0000 0.28979  0.71021  0.75000  Biso   1.000  O
  O3       1.0000 0.00466  0.99534  0.25000  Biso   1.000  O
  O4       1.0000 0.71021  0.28979  0.25000  Biso   1.000  O
  O5       1.0000 0.14723  0.35277  0.00000  Biso   1.000  O
  O6       1.0000 0.85277  0.64723  0.00000  Biso   1.000  O
  O7       1.0000 0.35277  0.14723  0.50000  Biso   1.000  O
  O8       1.0000 0.64723  0.85277  0.50000  Biso   1.000  O
  O9       1.0000 0.16305  0.03281  0.00070  Biso   1.000  O
  O10      1.0000 0.46719  0.33695  0.80485  Biso   1.000  O
  O11      1.0000 0.96719  0.83695  0.49930  Biso   1.000  O
  O12      1.0000 0.66305  0.53281  0.69515  Biso   1.000  O
  O13      1.0000 0.83695  0.96719  0.99930  Biso   1.000  O
  O14      1.0000 0.53281  0.66305  0.19515  Biso   1.000  O
  O15      1.0000 0.03281  0.16305  0.50070  Biso   1.000  O
  O16      1.0000 0.33695  0.46719  0.30485  Biso   1.000  O
  O17      1.0000 0.17198  0.82802  0.75000  Biso   1.000  O
  O18      1.0000 0.79128  0.20872  0.75000  Biso   1.000  O
  O19      1.0000 0.09038  0.90962  0.25000  Biso   1.000  O
  O20      1.0000 0.47108  0.52892  0.25000  Biso   1.000  O
  O21      1.0000 0.82802  0.17198  0.25000  Biso   1.000  O
  O22      1.0000 0.20872  0.79128  0.25000  Biso   1.000  O
  O23      1.0000 0.90962  0.09038  0.75000  Biso   1.000  O
  O24      1.0000 0.52892  0.47108  0.75000  Biso   1.000  O
  O25      1.0000 0.17847  0.32153  0.98751  Biso   1.000  O
  O26      1.0000 0.55917  0.94083  0.98751  Biso   1.000  O
  O27      1.0000 0.05917  0.44083  0.51249  Biso   1.000  O
  O28      1.0000 0.67847  0.82153  0.51249  Biso   1.000  O
  O29      1.0000 0.44083  0.05917  0.01249  Biso   1.000  O
  O30      1.0000 0.82153  0.67847  0.01249  Biso   1.000  O
  O31      1.0000 0.32153  0.17847  0.48751  Biso   1.000  O
  O32      1.0000 0.94083  0.55917  0.48751  Biso   1.000  O
  O33      1.0000 0.13803  0.73429  0.06684  Biso   1.000  O
  O34      1.0000 0.76571  0.36197  0.19452  Biso   1.000  O
  O35      1.0000 0.26571  0.86197  0.43316  Biso   1.000  O
  O36      1.0000 0.63803  0.23429  0.30548  Biso   1.000  O
  O37      1.0000 0.86197  0.26571  0.93316  Biso   1.000  O
  O38      1.0000 0.23429  0.63803  0.80548  Biso   1.000  O
  O39      1.0000 0.73429  0.13803  0.56684  Biso   1.000  O
  O40      1.0000 0.36197  0.76571  0.69452  Biso   1.000  O
