data_image0
_cell_length_a       7.8528
_cell_length_b       7.8528
_cell_length_c       30.3622
_cell_angle_alpha    90
_cell_angle_beta     90
_cell_angle_gamma    90

_symmetry_space_group_name_H-M    "P 1"
_symmetry_int_tables_number       1

loop_
  _symmetry_equiv_pos_as_xyz
  'x, y, z'

loop_
  _atom_site_label
  _atom_site_occupancy
  _atom_site_fract_x
  _atom_site_fract_y
  _atom_site_fract_z
  _atom_site_thermal_displace_type
  _atom_site_B_iso_or_equiv
  _atom_site_type_symbol
  K1       1.0000 0.73316  0.26684  0.67182  Biso   1.000  K
  K2       1.0000 0.76684  0.23316  0.17182  Biso   1.000  K
  K3       1.0000 0.26684  0.23316  0.75000  Biso   1.000  K
  K4       1.0000 0.23316  0.26684  0.25000  Biso   1.000  K
  K5       1.0000 0.76684  0.73316  0.75000  Biso   1.000  K
  K6       1.0000 0.73316  0.76684  0.25000  Biso   1.000  K
  K7       1.0000 0.23316  0.76684  0.82818  Biso   1.000  K
  K8       1.0000 0.26684  0.73316  0.32818  Biso   1.000  K
  Pb1      1.0000 0.76405  0.23595  0.92050  Biso   1.000  Pb
  Pb2      1.0000 0.73595  0.26405  0.42050  Biso   1.000  Pb
  Pb3      1.0000 0.23595  0.26405  0.92663  Biso   1.000  Pb
  Pb4      1.0000 0.26405  0.23595  0.42663  Biso   1.000  Pb
  Pb5      1.0000 0.73595  0.76405  0.92663  Biso   1.000  Pb
  Pb6      1.0000 0.76405  0.73595  0.42663  Biso   1.000  Pb
  Pb7      1.0000 0.26405  0.73595  0.93276  Biso   1.000  Pb
  Pb8      1.0000 0.23595  0.76405  0.43276  Biso   1.000  Pb
  Pb9      1.0000 0.26405  0.23595  0.07337  Biso   1.000  Pb
  Pb10     1.0000 0.23595  0.26405  0.57337  Biso   1.000  Pb
  Pb11     1.0000 0.73595  0.26405  0.06724  Biso   1.000  Pb
  Pb12     1.0000 0.76405  0.23595  0.56724  Biso   1.000  Pb
  Pb13     1.0000 0.23595  0.76405  0.07950  Biso   1.000  Pb
  Pb14     1.0000 0.26405  0.73595  0.57950  Biso   1.000  Pb
  Pb15     1.0000 0.76405  0.73595  0.07337  Biso   1.000  Pb
  Pb16     1.0000 0.73595  0.76405  0.57337  Biso   1.000  Pb
  Nb1      1.0000 0.50000  0.00000  0.00000  Biso   1.000  Nb
  Nb2      1.0000 0.50000  0.00000  0.50000  Biso   1.000  Nb
  Nb3      1.0000 0.00000  0.00000  0.00000  Biso   1.000  Nb
  Nb4      1.0000 0.00000  0.00000  0.50000  Biso   1.000  Nb
  Nb5      1.0000 0.50000  0.50000  0.00000  Biso   1.000  Nb
  Nb6      1.0000 0.50000  0.50000  0.50000  Biso   1.000  Nb
  Nb7      1.0000 0.00000  0.50000  0.00000  Biso   1.000  Nb
  Nb8      1.0000 0.00000  0.50000  0.50000  Biso   1.000  Nb
  Ta1      1.0000 0.49188  0.99835  0.85642  Biso   1.000  Ta
  Ta2      1.0000 0.49835  0.99188  0.35642  Biso   1.000  Ta
  Ta3      1.0000 0.00812  0.99188  0.85642  Biso   1.000  Ta
  Ta4      1.0000 0.00165  0.99835  0.35642  Biso   1.000  Ta
  Ta5      1.0000 0.49835  0.50165  0.85642  Biso   1.000  Ta
  Ta6      1.0000 0.49188  0.50812  0.35642  Biso   1.000  Ta
  Ta7      1.0000 0.00165  0.50812  0.85642  Biso   1.000  Ta
  Ta8      1.0000 0.00812  0.50165  0.35642  Biso   1.000  Ta
  Ta9      1.0000 0.50812  0.00165  0.14358  Biso   1.000  Ta
  Ta10     1.0000 0.50165  0.00812  0.64358  Biso   1.000  Ta
  Ta11     1.0000 0.99188  0.00812  0.14358  Biso   1.000  Ta
  Ta12     1.0000 0.99835  0.00165  0.64358  Biso   1.000  Ta
  Ta13     1.0000 0.50165  0.49835  0.14358  Biso   1.000  Ta
  Ta14     1.0000 0.50812  0.49188  0.64358  Biso   1.000  Ta
  Ta15     1.0000 0.99835  0.49188  0.14358  Biso   1.000  Ta
  Ta16     1.0000 0.99188  0.49835  0.64358  Biso   1.000  Ta
  O1       1.0000 0.75000  0.00000  0.04204  Biso   1.000  O
  O2       1.0000 0.75000  0.00000  0.50093  Biso   1.000  O
  O3       1.0000 0.25000  0.00000  0.95796  Biso   1.000  O
  O4       1.0000 0.25000  0.00000  0.49907  Biso   1.000  O
  O5       1.0000 0.75000  0.50000  0.00093  Biso   1.000  O
  O6       1.0000 0.75000  0.50000  0.54204  Biso   1.000  O
  O7       1.0000 0.25000  0.50000  0.99907  Biso   1.000  O
  O8       1.0000 0.25000  0.50000  0.45796  Biso   1.000  O
  O9       1.0000 0.50000  0.75000  0.99907  Biso   1.000  O
  O10      1.0000 0.50000  0.75000  0.45796  Biso   1.000  O
  O11      1.0000 0.00000  0.75000  0.95796  Biso   1.000  O
  O12      1.0000 0.00000  0.75000  0.49907  Biso   1.000  O
  O13      1.0000 0.50000  0.25000  0.00093  Biso   1.000  O
  O14      1.0000 0.50000  0.25000  0.54204  Biso   1.000  O
  O15      1.0000 0.00000  0.25000  0.04204  Biso   1.000  O
  O16      1.0000 0.00000  0.25000  0.50093  Biso   1.000  O
  O17      1.0000 0.53903  0.99986  0.93488  Biso   1.000  O
  O18      1.0000 0.49986  0.03903  0.43488  Biso   1.000  O
  O19      1.0000 0.96097  0.03903  0.93488  Biso   1.000  O
  O20      1.0000 0.00014  0.99986  0.43488  Biso   1.000  O
  O21      1.0000 0.49986  0.50014  0.93488  Biso   1.000  O
  O22      1.0000 0.53903  0.46097  0.43488  Biso   1.000  O
  O23      1.0000 0.00014  0.46097  0.93488  Biso   1.000  O
  O24      1.0000 0.96097  0.50014  0.43488  Biso   1.000  O
  O25      1.0000 0.46097  0.00014  0.06512  Biso   1.000  O
  O26      1.0000 0.50014  0.96097  0.56512  Biso   1.000  O
  O27      1.0000 0.03903  0.96097  0.06512  Biso   1.000  O
  O28      1.0000 0.99986  0.00014  0.56512  Biso   1.000  O
  O29      1.0000 0.50014  0.49986  0.06512  Biso   1.000  O
  O30      1.0000 0.46097  0.53903  0.56512  Biso   1.000  O
  O31      1.0000 0.99986  0.53903  0.06512  Biso   1.000  O
  O32      1.0000 0.03903  0.49986  0.56512  Biso   1.000  O
  O33      1.0000 0.75000  0.99750  0.83680  Biso   1.000  O
  O34      1.0000 0.75000  0.99750  0.36066  Biso   1.000  O
  O35      1.0000 0.25000  0.99750  0.90084  Biso   1.000  O
  O36      1.0000 0.25000  0.99750  0.37698  Biso   1.000  O
  O37      1.0000 0.75000  0.50250  0.86066  Biso   1.000  O
  O38      1.0000 0.75000  0.50250  0.33680  Biso   1.000  O
  O39      1.0000 0.25000  0.50250  0.87698  Biso   1.000  O
  O40      1.0000 0.25000  0.50250  0.40084  Biso   1.000  O
  O41      1.0000 0.25000  0.00250  0.16320  Biso   1.000  O
  O42      1.0000 0.25000  0.00250  0.63934  Biso   1.000  O
  O43      1.0000 0.75000  0.00250  0.09916  Biso   1.000  O
  O44      1.0000 0.75000  0.00250  0.62302  Biso   1.000  O
  O45      1.0000 0.25000  0.49750  0.13934  Biso   1.000  O
  O46      1.0000 0.25000  0.49750  0.66320  Biso   1.000  O
  O47      1.0000 0.75000  0.49750  0.12302  Biso   1.000  O
  O48      1.0000 0.75000  0.49750  0.59916  Biso   1.000  O
  O49      1.0000 0.50250  0.75000  0.13934  Biso   1.000  O
  O50      1.0000 0.50250  0.75000  0.66320  Biso   1.000  O
  O51      1.0000 0.99750  0.75000  0.16320  Biso   1.000  O
  O52      1.0000 0.99750  0.75000  0.63934  Biso   1.000  O
  O53      1.0000 0.50250  0.25000  0.12302  Biso   1.000  O
  O54      1.0000 0.50250  0.25000  0.59916  Biso   1.000  O
  O55      1.0000 0.99750  0.25000  0.09916  Biso   1.000  O
  O56      1.0000 0.99750  0.25000  0.62302  Biso   1.000  O
  O57      1.0000 0.49750  0.75000  0.87698  Biso   1.000  O
  O58      1.0000 0.49750  0.75000  0.40084  Biso   1.000  O
  O59      1.0000 0.00250  0.75000  0.90084  Biso   1.000  O
  O60      1.0000 0.00250  0.75000  0.37698  Biso   1.000  O
  O61      1.0000 0.49750  0.25000  0.86066  Biso   1.000  O
  O62      1.0000 0.49750  0.25000  0.33680  Biso   1.000  O
  O63      1.0000 0.00250  0.25000  0.83680  Biso   1.000  O
  O64      1.0000 0.00250  0.25000  0.36066  Biso   1.000  O
  O65      1.0000 0.46110  0.98663  0.79813  Biso   1.000  O
  O66      1.0000 0.48663  0.96110  0.29813  Biso   1.000  O
  O67      1.0000 0.03890  0.96110  0.79813  Biso   1.000  O
  O68      1.0000 0.01337  0.98663  0.29813  Biso   1.000  O
  O69      1.0000 0.48663  0.51337  0.79813  Biso   1.000  O
  O70      1.0000 0.46110  0.53890  0.29813  Biso   1.000  O
  O71      1.0000 0.01337  0.53890  0.79813  Biso   1.000  O
  O72      1.0000 0.03890  0.51337  0.29813  Biso   1.000  O
  O73      1.0000 0.53890  0.01337  0.20187  Biso   1.000  O
  O74      1.0000 0.51337  0.03890  0.70187  Biso   1.000  O
  O75      1.0000 0.96110  0.03890  0.20187  Biso   1.000  O
  O76      1.0000 0.98663  0.01337  0.70187  Biso   1.000  O
  O77      1.0000 0.51337  0.48663  0.20187  Biso   1.000  O
  O78      1.0000 0.53890  0.46110  0.70187  Biso   1.000  O
  O79      1.0000 0.98663  0.46110  0.20187  Biso   1.000  O
  O80      1.0000 0.96110  0.48663  0.70187  Biso   1.000  O
