data_image0
_cell_length_a       3.9264
_cell_length_b       30.3622
_cell_length_c       7.8528
_cell_angle_alpha    90
_cell_angle_beta     90
_cell_angle_gamma    90

_symmetry_space_group_name_H-M    "P 1"
_symmetry_int_tables_number       1

loop_
  _symmetry_equiv_pos_as_xyz
  'x, y, z'

loop_
  _atom_site_label
  _atom_site_occupancy
  _atom_site_fract_x
  _atom_site_fract_y
  _atom_site_fract_z
  _atom_site_thermal_displace_type
  _atom_site_B_iso_or_equiv
  _atom_site_type_symbol
  K1       1.0000 0.49466  0.55455  0.49733  Biso   1.000  K
  K2       1.0000 0.50534  0.05455  0.00267  Biso   1.000  K
  K3       1.0000 0.49466  0.94545  0.99733  Biso   1.000  K
  K4       1.0000 0.50534  0.44545  0.50267  Biso   1.000  K
  Pb1      1.0000 0.99056  0.91131  0.24528  Biso   1.000  Pb
  Pb2      1.0000 0.00944  0.41131  0.25472  Biso   1.000  Pb
  Pb3      1.0000 0.99056  0.94195  0.74528  Biso   1.000  Pb
  Pb4      1.0000 0.00944  0.44195  0.75472  Biso   1.000  Pb
  Pb5      1.0000 0.00944  0.08869  0.75472  Biso   1.000  Pb
  Pb6      1.0000 0.99056  0.58869  0.74528  Biso   1.000  Pb
  Pb7      1.0000 0.00944  0.05805  0.25472  Biso   1.000  Pb
  Pb8      1.0000 0.99056  0.55805  0.24528  Biso   1.000  Pb
  Nb1      1.0000 0.50000  0.00000  0.00000  Biso   1.000  Nb
  Nb2      1.0000 0.50000  0.50000  0.00000  Biso   1.000  Nb
  Nb3      1.0000 0.50000  0.00000  0.50000  Biso   1.000  Nb
  Nb4      1.0000 0.50000  0.50000  0.50000  Biso   1.000  Nb
  Ta1      1.0000 0.47235  0.85642  0.96175  Biso   1.000  Ta
  Ta2      1.0000 0.52765  0.35642  0.98940  Biso   1.000  Ta
  Ta3      1.0000 0.47235  0.85642  0.51060  Biso   1.000  Ta
  Ta4      1.0000 0.52765  0.35642  0.53825  Biso   1.000  Ta
  Ta5      1.0000 0.52765  0.14358  0.03825  Biso   1.000  Ta
  Ta6      1.0000 0.47235  0.64358  0.01060  Biso   1.000  Ta
  Ta7      1.0000 0.52765  0.14358  0.48940  Biso   1.000  Ta
  Ta8      1.0000 0.47235  0.64358  0.46175  Biso   1.000  Ta
  O1       1.0000 0.50000  0.10744  0.25000  Biso   1.000  O
  O2       1.0000 0.50000  0.60744  0.25000  Biso   1.000  O
  O3       1.0000 0.50000  0.89256  0.75000  Biso   1.000  O
  O4       1.0000 0.50000  0.39256  0.75000  Biso   1.000  O
  O5       1.0000 0.00000  0.00000  0.00000  Biso   1.000  O
  O6       1.0000 0.00000  0.50000  0.00000  Biso   1.000  O
  O7       1.0000 0.00000  0.00000  0.50000  Biso   1.000  O
  O8       1.0000 0.00000  0.50000  0.50000  Biso   1.000  O
  O9       1.0000 0.49378  0.93488  0.09412  Biso   1.000  O
  O10      1.0000 0.50622  0.43488  0.10033  Biso   1.000  O
  O11      1.0000 0.49378  0.93488  0.39967  Biso   1.000  O
  O12      1.0000 0.50622  0.43488  0.40588  Biso   1.000  O
  O13      1.0000 0.50622  0.06512  0.90588  Biso   1.000  O
  O14      1.0000 0.49378  0.56512  0.89967  Biso   1.000  O
  O15      1.0000 0.50622  0.06512  0.60033  Biso   1.000  O
  O16      1.0000 0.49378  0.56512  0.59412  Biso   1.000  O
  O17      1.0000 0.49023  0.76837  0.24517  Biso   1.000  O
  O18      1.0000 0.50977  0.26837  0.25483  Biso   1.000  O
  O19      1.0000 0.49023  0.96927  0.74517  Biso   1.000  O
  O20      1.0000 0.50977  0.46927  0.75483  Biso   1.000  O
  O21      1.0000 0.50977  0.23163  0.75483  Biso   1.000  O
  O22      1.0000 0.49023  0.73163  0.74517  Biso   1.000  O
  O23      1.0000 0.50977  0.03073  0.25483  Biso   1.000  O
  O24      1.0000 0.49023  0.53073  0.24517  Biso   1.000  O
  O25      1.0000 0.00966  0.13118  0.01737  Biso   1.000  O
  O26      1.0000 0.99034  0.63118  0.00760  Biso   1.000  O
  O27      1.0000 0.00966  0.13118  0.49240  Biso   1.000  O
  O28      1.0000 0.99034  0.63118  0.48263  Biso   1.000  O
  O29      1.0000 0.99034  0.86882  0.98263  Biso   1.000  O
  O30      1.0000 0.00966  0.36882  0.99240  Biso   1.000  O
  O31      1.0000 0.99034  0.86882  0.50760  Biso   1.000  O
  O32      1.0000 0.00966  0.36882  0.51737  Biso   1.000  O
  O33      1.0000 0.45992  0.79813  0.84928  Biso   1.000  O
  O34      1.0000 0.54008  0.29813  0.88936  Biso   1.000  O
  O35      1.0000 0.45992  0.79813  0.61064  Biso   1.000  O
  O36      1.0000 0.54008  0.29813  0.65072  Biso   1.000  O
  O37      1.0000 0.54008  0.20187  0.15072  Biso   1.000  O
  O38      1.0000 0.45992  0.70187  0.11064  Biso   1.000  O
  O39      1.0000 0.54008  0.20187  0.38936  Biso   1.000  O
  O40      1.0000 0.45992  0.70187  0.34928  Biso   1.000  O
