data_image0
_cell_length_a       7.8528
_cell_length_b       15.1811
_cell_length_c       11.1055
_cell_angle_alpha    90
_cell_angle_beta     135
_cell_angle_gamma    90

_symmetry_space_group_name_H-M    "P 1"
_symmetry_int_tables_number       1

loop_
  _symmetry_equiv_pos_as_xyz
  'x, y, z'

loop_
  _atom_site_label
  _atom_site_occupancy
  _atom_site_fract_x
  _atom_site_fract_y
  _atom_site_fract_z
  _atom_site_thermal_displace_type
  _atom_site_B_iso_or_equiv
  _atom_site_type_symbol
  K1       1.0000 0.75000  0.42182  0.46236  Biso   1.000  K
  K2       1.0000 0.25000  0.57818  0.53764  Biso   1.000  K
  K3       1.0000 0.25000  0.42182  0.03764  Biso   1.000  K
  K4       1.0000 0.75000  0.57818  0.96236  Biso   1.000  K
  Pb1      1.0000 0.75000  0.84713  0.51243  Biso   1.000  Pb
  Pb2      1.0000 0.25000  0.85939  0.48757  Biso   1.000  Pb
  Pb3      1.0000 0.25000  0.84713  0.98757  Biso   1.000  Pb
  Pb4      1.0000 0.75000  0.85939  0.01243  Biso   1.000  Pb
  Pb5      1.0000 0.25000  0.15287  0.48757  Biso   1.000  Pb
  Pb6      1.0000 0.75000  0.14061  0.51243  Biso   1.000  Pb
  Pb7      1.0000 0.75000  0.15287  0.01243  Biso   1.000  Pb
  Pb8      1.0000 0.25000  0.14061  0.98757  Biso   1.000  Pb
  Nb1      1.0000 0.75000  0.00000  0.74969  Biso   1.000  Nb
  Nb2      1.0000 0.25000  0.00000  0.75031  Biso   1.000  Nb
  Nb3      1.0000 0.25000  0.00000  0.25031  Biso   1.000  Nb
  Nb4      1.0000 0.75000  0.00000  0.24969  Biso   1.000  Nb
  Ta1      1.0000 0.74512  0.71284  0.75582  Biso   1.000  Ta
  Ta2      1.0000 0.25488  0.71284  0.74418  Biso   1.000  Ta
  Ta3      1.0000 0.24512  0.71284  0.24418  Biso   1.000  Ta
  Ta4      1.0000 0.75488  0.71284  0.25582  Biso   1.000  Ta
  Ta5      1.0000 0.75488  0.28716  0.75582  Biso   1.000  Ta
  Ta6      1.0000 0.24512  0.28716  0.74418  Biso   1.000  Ta
  Ta7      1.0000 0.25488  0.28716  0.24418  Biso   1.000  Ta
  Ta8      1.0000 0.74512  0.28716  0.25582  Biso   1.000  Ta
  O1       1.0000 1.00000  0.04297  0.75000  Biso   1.000  O
  O2       1.0000 0.50000  0.95703  0.75000  Biso   1.000  O
  O3       1.0000 0.50000  0.04297  0.25000  Biso   1.000  O
  O4       1.0000 0.00000  0.95703  0.25000  Biso   1.000  O
  O5       1.0000 0.00000  0.00000  0.00000  Biso   1.000  O
  O6       1.0000 0.50000  0.00000  0.00000  Biso   1.000  O
  O7       1.0000 0.50000  0.00000  0.50000  Biso   1.000  O
  O8       1.0000 0.00000  0.00000  0.50000  Biso   1.000  O
  O9       1.0000 0.76945  0.86976  0.74423  Biso   1.000  O
  O10      1.0000 0.23055  0.86976  0.75577  Biso   1.000  O
  O11      1.0000 0.26945  0.86976  0.25577  Biso   1.000  O
  O12      1.0000 0.73055  0.86976  0.24423  Biso   1.000  O
  O13      1.0000 0.73055  0.13024  0.74423  Biso   1.000  O
  O14      1.0000 0.26945  0.13024  0.75577  Biso   1.000  O
  O15      1.0000 0.23055  0.13024  0.25577  Biso   1.000  O
  O16      1.0000 0.76945  0.13024  0.24423  Biso   1.000  O
  O17      1.0000 1.00000  0.68008  0.75000  Biso   1.000  O
  O18      1.0000 0.50000  0.79520  0.75000  Biso   1.000  O
  O19      1.0000 0.50000  0.71484  0.25000  Biso   1.000  O
  O20      1.0000 0.00000  0.76044  0.25000  Biso   1.000  O
  O21      1.0000 0.50000  0.28516  0.75000  Biso   1.000  O
  O22      1.0000 1.00000  0.23956  0.75000  Biso   1.000  O
  O23      1.0000 0.00000  0.31992  0.25000  Biso   1.000  O
  O24      1.0000 0.50000  0.20480  0.25000  Biso   1.000  O
  O25      1.0000 0.00250  0.24498  0.00000  Biso   1.000  O
  O26      1.0000 0.49750  0.27974  0.00000  Biso   1.000  O
  O27      1.0000 0.50250  0.27974  0.50000  Biso   1.000  O
  O28      1.0000 0.99750  0.24498  0.50000  Biso   1.000  O
  O29      1.0000 0.99750  0.75502  1.00000  Biso   1.000  O
  O30      1.0000 0.50250  0.72026  1.00000  Biso   1.000  O
  O31      1.0000 0.49750  0.72026  0.50000  Biso   1.000  O
  O32      1.0000 0.00250  0.75502  0.50000  Biso   1.000  O
  O33      1.0000 0.72386  0.59626  0.76564  Biso   1.000  O
  O34      1.0000 0.27614  0.59626  0.73436  Biso   1.000  O
  O35      1.0000 0.22386  0.59626  0.23436  Biso   1.000  O
  O36      1.0000 0.77614  0.59626  0.26564  Biso   1.000  O
  O37      1.0000 0.77614  0.40374  0.76564  Biso   1.000  O
  O38      1.0000 0.22386  0.40374  0.73436  Biso   1.000  O
  O39      1.0000 0.27614  0.40374  0.23436  Biso   1.000  O
  O40      1.0000 0.72386  0.40374  0.26564  Biso   1.000  O
