data_image0
_cell_length_a       5.55277
_cell_length_b       30.3622
_cell_length_c       7.8528
_cell_angle_alpha    90
_cell_angle_beta     135
_cell_angle_gamma    90

_symmetry_space_group_name_H-M    "P 1"
_symmetry_int_tables_number       1

loop_
  _symmetry_equiv_pos_as_xyz
  'x, y, z'

loop_
  _atom_site_label
  _atom_site_occupancy
  _atom_site_fract_x
  _atom_site_fract_y
  _atom_site_fract_z
  _atom_site_thermal_displace_type
  _atom_site_B_iso_or_equiv
  _atom_site_type_symbol
  K1       1.0000 0.19786  0.25000  0.34893  Biso   1.000  K
  K2       1.0000 0.80214  0.75000  0.15107  Biso   1.000  K
  K3       1.0000 0.19786  0.25000  0.84893  Biso   1.000  K
  K4       1.0000 0.80214  0.75000  0.65107  Biso   1.000  K
  Pb1      1.0000 0.95123  0.07337  0.24811  Biso   1.000  Pb
  Pb2      1.0000 0.04877  0.57337  0.25189  Biso   1.000  Pb
  Pb3      1.0000 0.04121  0.07337  0.74811  Biso   1.000  Pb
  Pb4      1.0000 0.95879  0.57337  0.75189  Biso   1.000  Pb
  Pb5      1.0000 0.04877  0.92663  0.75189  Biso   1.000  Pb
  Pb6      1.0000 0.95123  0.42663  0.74811  Biso   1.000  Pb
  Pb7      1.0000 0.95879  0.92663  0.25189  Biso   1.000  Pb
  Pb8      1.0000 0.04121  0.42663  0.24811  Biso   1.000  Pb
  Nb1      1.0000 0.49577  0.00000  0.75000  Biso   1.000  Nb
  Nb2      1.0000 0.50423  0.50000  0.75000  Biso   1.000  Nb
  Nb3      1.0000 0.50423  0.00000  0.25000  Biso   1.000  Nb
  Nb4      1.0000 0.49577  0.50000  0.25000  Biso   1.000  Nb
  Ta1      1.0000 0.50144  0.14358  0.74447  Biso   1.000  Ta
  Ta2      1.0000 0.49856  0.64358  0.75553  Biso   1.000  Ta
  Ta3      1.0000 0.47644  0.14358  0.24447  Biso   1.000  Ta
  Ta4      1.0000 0.52356  0.64358  0.25553  Biso   1.000  Ta
  Ta5      1.0000 0.52356  0.85642  0.75553  Biso   1.000  Ta
  Ta6      1.0000 0.47644  0.35642  0.74447  Biso   1.000  Ta
  Ta7      1.0000 0.49856  0.85642  0.25553  Biso   1.000  Ta
  Ta8      1.0000 0.50144  0.35642  0.24447  Biso   1.000  Ta
  O1       1.0000 0.00000  0.00000  0.00000  Biso   1.000  O
  O2       1.0000 0.00000  0.50000  0.00000  Biso   1.000  O
  O3       1.0000 0.00000  0.00000  0.50000  Biso   1.000  O
  O4       1.0000 0.00000  0.50000  0.50000  Biso   1.000  O
  O5       1.0000 0.50000  0.00000  0.50000  Biso   1.000  O
  O6       1.0000 0.50000  0.50000  0.50000  Biso   1.000  O
  O7       1.0000 0.50000  0.00000  0.00000  Biso   1.000  O
  O8       1.0000 0.50000  0.50000  0.00000  Biso   1.000  O
  O9       1.0000 0.45863  0.06512  0.74876  Biso   1.000  O
  O10      1.0000 0.54137  0.56512  0.75124  Biso   1.000  O
  O11      1.0000 0.53640  0.06512  0.24876  Biso   1.000  O
  O12      1.0000 0.46360  0.56512  0.25124  Biso   1.000  O
  O13      1.0000 0.46360  0.93488  0.75124  Biso   1.000  O
  O14      1.0000 0.53640  0.43488  0.74876  Biso   1.000  O
  O15      1.0000 0.54137  0.93488  0.25124  Biso   1.000  O
  O16      1.0000 0.45863  0.43488  0.24876  Biso   1.000  O
  O17      1.0000 0.99614  0.11680  0.99807  Biso   1.000  O
  O18      1.0000 0.00386  0.64556  0.00193  Biso   1.000  O
  O19      1.0000 0.99614  0.14556  0.49807  Biso   1.000  O
  O20      1.0000 0.00386  0.61680  0.50193  Biso   1.000  O
  O21      1.0000 0.00386  0.85444  0.50193  Biso   1.000  O
  O22      1.0000 0.99614  0.38320  0.49807  Biso   1.000  O
  O23      1.0000 0.00386  0.88320  0.00193  Biso   1.000  O
  O24      1.0000 0.99614  0.35444  0.99807  Biso   1.000  O
  O25      1.0000 0.50391  0.88320  0.50195  Biso   1.000  O
  O26      1.0000 0.49609  0.35444  0.49805  Biso   1.000  O
  O27      1.0000 0.50391  0.85444  0.00195  Biso   1.000  O
  O28      1.0000 0.49609  0.38320  0.99805  Biso   1.000  O
  O29      1.0000 0.49609  0.11680  0.49805  Biso   1.000  O
  O30      1.0000 0.50391  0.64556  0.50195  Biso   1.000  O
  O31      1.0000 0.49609  0.14556  0.99805  Biso   1.000  O
  O32      1.0000 0.50391  0.61680  0.00195  Biso   1.000  O
  O33      1.0000 0.50566  0.20187  0.74198  Biso   1.000  O
  O34      1.0000 0.49434  0.70187  0.75802  Biso   1.000  O
  O35      1.0000 0.46227  0.20187  0.24198  Biso   1.000  O
  O36      1.0000 0.53773  0.70187  0.25802  Biso   1.000  O
  O37      1.0000 0.53773  0.79813  0.75802  Biso   1.000  O
  O38      1.0000 0.46227  0.29813  0.74198  Biso   1.000  O
  O39      1.0000 0.49434  0.79813  0.25802  Biso   1.000  O
  O40      1.0000 0.50566  0.29813  0.24198  Biso   1.000  O
