data_image0
_cell_length_a       5.55277
_cell_length_b       30.3622
_cell_length_c       5.55277
_cell_angle_alpha    90
_cell_angle_beta     90
_cell_angle_gamma    90

_symmetry_space_group_name_H-M    "P 1"
_symmetry_int_tables_number       1

loop_
  _symmetry_equiv_pos_as_xyz
  'x, y, z'

loop_
  _atom_site_label
  _atom_site_occupancy
  _atom_site_fract_x
  _atom_site_fract_y
  _atom_site_fract_z
  _atom_site_thermal_displace_type
  _atom_site_B_iso_or_equiv
  _atom_site_type_symbol
  K1       1.0000 0.49466  0.75000  0.66836  Biso   1.000  K
  K2       1.0000 0.50534  0.25000  0.33164  Biso   1.000  K
  K3       1.0000 0.99466  0.75000  0.83164  Biso   1.000  K
  K4       1.0000 0.00534  0.25000  0.16836  Biso   1.000  K
  Pb1      1.0000 0.99056  0.92663  0.35955  Biso   1.000  Pb
  Pb2      1.0000 0.00944  0.42663  0.64045  Biso   1.000  Pb
  Pb3      1.0000 0.49056  0.92663  0.14045  Biso   1.000  Pb
  Pb4      1.0000 0.50944  0.42663  0.85955  Biso   1.000  Pb
  Pb5      1.0000 0.50944  0.07337  0.85955  Biso   1.000  Pb
  Pb6      1.0000 0.49056  0.57337  0.14045  Biso   1.000  Pb
  Pb7      1.0000 0.00944  0.07337  0.64045  Biso   1.000  Pb
  Pb8      1.0000 0.99056  0.57337  0.35955  Biso   1.000  Pb
  Nb1      1.0000 0.00000  0.00000  0.00000  Biso   1.000  Nb
  Nb2      1.0000 0.00000  0.50000  0.00000  Biso   1.000  Nb
  Nb3      1.0000 0.50000  0.00000  0.50000  Biso   1.000  Nb
  Nb4      1.0000 0.50000  0.50000  0.50000  Biso   1.000  Nb
  Ta1      1.0000 0.97235  0.85642  0.96769  Biso   1.000  Ta
  Ta2      1.0000 0.02765  0.35642  0.03231  Biso   1.000  Ta
  Ta3      1.0000 0.47235  0.85642  0.53231  Biso   1.000  Ta
  Ta4      1.0000 0.52765  0.35642  0.46769  Biso   1.000  Ta
  Ta5      1.0000 0.02765  0.14358  0.03231  Biso   1.000  Ta
  Ta6      1.0000 0.97235  0.64358  0.96769  Biso   1.000  Ta
  Ta7      1.0000 0.52765  0.14358  0.46769  Biso   1.000  Ta
  Ta8      1.0000 0.47235  0.64358  0.53231  Biso   1.000  Ta
  O1       1.0000 0.25000  0.89723  0.75000  Biso   1.000  O
  O2       1.0000 0.25000  0.60277  0.75000  Biso   1.000  O
  O3       1.0000 0.75000  0.10277  0.25000  Biso   1.000  O
  O4       1.0000 0.75000  0.39723  0.25000  Biso   1.000  O
  O5       1.0000 0.25000  0.10277  0.25000  Biso   1.000  O
  O6       1.0000 0.25000  0.39723  0.25000  Biso   1.000  O
  O7       1.0000 0.75000  0.89723  0.75000  Biso   1.000  O
  O8       1.0000 0.75000  0.60277  0.75000  Biso   1.000  O
  O9       1.0000 0.99378  0.93488  0.19586  Biso   1.000  O
  O10      1.0000 0.00622  0.43488  0.80414  Biso   1.000  O
  O11      1.0000 0.49378  0.93488  0.30414  Biso   1.000  O
  O12      1.0000 0.50622  0.43488  0.69586  Biso   1.000  O
  O13      1.0000 0.00622  0.06512  0.80414  Biso   1.000  O
  O14      1.0000 0.99378  0.56512  0.19586  Biso   1.000  O
  O15      1.0000 0.50622  0.06512  0.69586  Biso   1.000  O
  O16      1.0000 0.49378  0.56512  0.30414  Biso   1.000  O
  O17      1.0000 0.24028  0.92847  0.74994  Biso   1.000  O
  O18      1.0000 0.25972  0.30917  0.75006  Biso   1.000  O
  O19      1.0000 0.74028  0.80917  0.24994  Biso   1.000  O
  O20      1.0000 0.75972  0.42847  0.25006  Biso   1.000  O
  O21      1.0000 0.75972  0.07153  0.25006  Biso   1.000  O
  O22      1.0000 0.74028  0.69083  0.24994  Biso   1.000  O
  O23      1.0000 0.25972  0.19083  0.75006  Biso   1.000  O
  O24      1.0000 0.24028  0.57153  0.74994  Biso   1.000  O
  O25      1.0000 0.25972  0.07153  0.24994  Biso   1.000  O
  O26      1.0000 0.24028  0.69083  0.25006  Biso   1.000  O
  O27      1.0000 0.75972  0.19083  0.74994  Biso   1.000  O
  O28      1.0000 0.74028  0.57153  0.75006  Biso   1.000  O
  O29      1.0000 0.24028  0.80917  0.25006  Biso   1.000  O
  O30      1.0000 0.25972  0.42847  0.24994  Biso   1.000  O
  O31      1.0000 0.74028  0.92847  0.75006  Biso   1.000  O
  O32      1.0000 0.75972  0.30917  0.74994  Biso   1.000  O
  O33      1.0000 0.95992  0.79813  0.87231  Biso   1.000  O
  O34      1.0000 0.04008  0.29813  0.12769  Biso   1.000  O
  O35      1.0000 0.45992  0.79813  0.62769  Biso   1.000  O
  O36      1.0000 0.54008  0.29813  0.37231  Biso   1.000  O
  O37      1.0000 0.04008  0.20187  0.12769  Biso   1.000  O
  O38      1.0000 0.95992  0.70187  0.87231  Biso   1.000  O
  O39      1.0000 0.54008  0.20187  0.37231  Biso   1.000  O
  O40      1.0000 0.45992  0.70187  0.62769  Biso   1.000  O
