data_image0
_cell_length_a       3.9264
_cell_length_b       30.3622
_cell_length_c       7.8528
_cell_angle_alpha    90
_cell_angle_beta     90
_cell_angle_gamma    90

_symmetry_space_group_name_H-M    "P 1"
_symmetry_int_tables_number       1

loop_
  _symmetry_equiv_pos_as_xyz
  'x, y, z'

loop_
  _atom_site_label
  _atom_site_occupancy
  _atom_site_fract_x
  _atom_site_fract_y
  _atom_site_fract_z
  _atom_site_thermal_displace_type
  _atom_site_B_iso_or_equiv
  _atom_site_type_symbol
  K1       1.0000 0.50000  0.00000  0.50000  Biso   1.000  K
  K2       1.0000 0.50000  0.50000  0.50000  Biso   1.000  K
  K3       1.0000 0.50000  0.00000  0.00000  Biso   1.000  K
  K4       1.0000 0.50000  0.50000  0.00000  Biso   1.000  K
  Pb1      1.0000 0.50966  0.81757  0.49517  Biso   1.000  Pb
  Pb2      1.0000 0.49034  0.32917  0.50483  Biso   1.000  Pb
  Pb3      1.0000 0.50966  0.82917  0.99517  Biso   1.000  Pb
  Pb4      1.0000 0.49034  0.31757  0.00483  Biso   1.000  Pb
  Pb5      1.0000 0.50966  0.67083  0.49517  Biso   1.000  Pb
  Pb6      1.0000 0.49034  0.18243  0.50483  Biso   1.000  Pb
  Pb7      1.0000 0.50966  0.68243  0.99517  Biso   1.000  Pb
  Pb8      1.0000 0.49034  0.17083  0.00483  Biso   1.000  Pb
  Nb1      1.0000 1.00000  0.75000  0.75000  Biso   1.000  Nb
  Nb2      1.0000 0.00000  0.25000  0.75000  Biso   1.000  Nb
  Nb3      1.0000 1.00000  0.75000  0.25000  Biso   1.000  Nb
  Nb4      1.0000 0.00000  0.25000  0.25000  Biso   1.000  Nb
  Ta1      1.0000 0.04012  0.89358  0.72881  Biso   1.000  Ta
  Ta2      1.0000 0.95988  0.39358  0.77119  Biso   1.000  Ta
  Ta3      1.0000 0.04012  0.89358  0.23107  Biso   1.000  Ta
  Ta4      1.0000 0.95988  0.39358  0.26893  Biso   1.000  Ta
  Ta5      1.0000 0.04012  0.60642  0.73107  Biso   1.000  Ta
  Ta6      1.0000 0.95988  0.10642  0.76893  Biso   1.000  Ta
  Ta7      1.0000 0.04012  0.60642  0.22881  Biso   1.000  Ta
  Ta8      1.0000 0.95988  0.10642  0.27119  Biso   1.000  Ta
  O1       1.0000 0.52601  0.75000  0.72582  Biso   1.000  O
  O2       1.0000 0.47399  0.25000  0.77418  Biso   1.000  O
  O3       1.0000 0.52601  0.75000  0.22582  Biso   1.000  O
  O4       1.0000 0.47399  0.25000  0.27418  Biso   1.000  O
  O5       1.0000 0.04836  0.70696  0.98700  Biso   1.000  O
  O6       1.0000 0.95164  0.29304  0.01300  Biso   1.000  O
  O7       1.0000 0.04836  0.79304  0.48700  Biso   1.000  O
  O8       1.0000 0.95164  0.20696  0.51300  Biso   1.000  O
  O9       1.0000 0.03009  0.81512  0.76854  Biso   1.000  O
  O10      1.0000 0.96991  0.31512  0.73146  Biso   1.000  O
  O11      1.0000 0.03009  0.81512  0.20137  Biso   1.000  O
  O12      1.0000 0.96991  0.31512  0.29863  Biso   1.000  O
  O13      1.0000 0.03009  0.68488  0.70137  Biso   1.000  O
  O14      1.0000 0.96991  0.18488  0.79863  Biso   1.000  O
  O15      1.0000 0.03009  0.68488  0.26854  Biso   1.000  O
  O16      1.0000 0.96991  0.18488  0.23146  Biso   1.000  O
  O17      1.0000 0.51613  0.88118  0.73651  Biso   1.000  O
  O18      1.0000 0.48387  0.38118  0.76349  Biso   1.000  O
  O19      1.0000 0.51613  0.88118  0.24472  Biso   1.000  O
  O20      1.0000 0.48387  0.38118  0.25528  Biso   1.000  O
  O21      1.0000 0.51613  0.61882  0.74472  Biso   1.000  O
  O22      1.0000 0.48387  0.11882  0.75528  Biso   1.000  O
  O23      1.0000 0.51613  0.61882  0.23651  Biso   1.000  O
  O24      1.0000 0.48387  0.11882  0.26349  Biso   1.000  O
  O25      1.0000 0.01876  0.63738  0.99194  Biso   1.000  O
  O26      1.0000 0.98124  0.10026  0.00806  Biso   1.000  O
  O27      1.0000 0.01876  0.60026  0.49194  Biso   1.000  O
  O28      1.0000 0.98124  0.13738  0.50806  Biso   1.000  O
  O29      1.0000 0.01876  0.89974  0.99194  Biso   1.000  O
  O30      1.0000 0.98124  0.36262  0.00806  Biso   1.000  O
  O31      1.0000 0.01876  0.86262  0.49194  Biso   1.000  O
  O32      1.0000 0.98124  0.39974  0.50806  Biso   1.000  O
  O33      1.0000 0.01649  0.95187  0.73476  Biso   1.000  O
  O34      1.0000 0.98351  0.45187  0.76524  Biso   1.000  O
  O35      1.0000 0.01649  0.95187  0.24875  Biso   1.000  O
  O36      1.0000 0.98351  0.45187  0.25125  Biso   1.000  O
  O37      1.0000 0.01649  0.54813  0.74875  Biso   1.000  O
  O38      1.0000 0.98351  0.04813  0.75125  Biso   1.000  O
  O39      1.0000 0.01649  0.54813  0.23476  Biso   1.000  O
  O40      1.0000 0.98351  0.04813  0.26524  Biso   1.000  O
