data_image0
_cell_length_a       5.55277
_cell_length_b       30.3622
_cell_length_c       5.55277
_cell_angle_alpha    90
_cell_angle_beta     90
_cell_angle_gamma    90

_symmetry_space_group_name_H-M    "P 1"
_symmetry_int_tables_number       1

loop_
  _symmetry_equiv_pos_as_xyz
  'x, y, z'

loop_
  _atom_site_label
  _atom_site_occupancy
  _atom_site_fract_x
  _atom_site_fract_y
  _atom_site_fract_z
  _atom_site_thermal_displace_type
  _atom_site_B_iso_or_equiv
  _atom_site_type_symbol
  K1       1.0000 0.82528  0.50000  0.25000  Biso   1.000  K
  K2       1.0000 0.82528  0.00000  0.25000  Biso   1.000  K
  K3       1.0000 0.17472  0.50000  0.75000  Biso   1.000  K
  K4       1.0000 0.17472  0.00000  0.75000  Biso   1.000  K
  Pb1      1.0000 0.71549  0.67663  0.24034  Biso   1.000  Pb
  Pb2      1.0000 0.73481  0.17663  0.25966  Biso   1.000  Pb
  Pb3      1.0000 0.26519  0.67663  0.74034  Biso   1.000  Pb
  Pb4      1.0000 0.28451  0.17663  0.75966  Biso   1.000  Pb
  Pb5      1.0000 0.26519  0.82337  0.74034  Biso   1.000  Pb
  Pb6      1.0000 0.28451  0.32337  0.75966  Biso   1.000  Pb
  Pb7      1.0000 0.71549  0.82337  0.24034  Biso   1.000  Pb
  Pb8      1.0000 0.73481  0.32337  0.25966  Biso   1.000  Pb
  Nb1      1.0000 0.74938  0.75000  0.75000  Biso   1.000  Nb
  Nb2      1.0000 0.74938  0.25000  0.75000  Biso   1.000  Nb
  Nb3      1.0000 0.25062  0.75000  0.25000  Biso   1.000  Nb
  Nb4      1.0000 0.25062  0.25000  0.25000  Biso   1.000  Nb
  Ta1      1.0000 0.72152  0.60642  0.70988  Biso   1.000  Ta
  Ta2      1.0000 0.80176  0.10642  0.79012  Biso   1.000  Ta
  Ta3      1.0000 0.19824  0.60642  0.20988  Biso   1.000  Ta
  Ta4      1.0000 0.27848  0.10642  0.29012  Biso   1.000  Ta
  Ta5      1.0000 0.72152  0.89358  0.70988  Biso   1.000  Ta
  Ta6      1.0000 0.80176  0.39358  0.79012  Biso   1.000  Ta
  Ta7      1.0000 0.19824  0.89358  0.20988  Biso   1.000  Ta
  Ta8      1.0000 0.27848  0.39358  0.29012  Biso   1.000  Ta
  O1       1.0000 0.95164  0.75000  0.45164  Biso   1.000  O
  O2       1.0000 0.04836  0.25000  0.54836  Biso   1.000  O
  O3       1.0000 0.45164  0.75000  0.95164  Biso   1.000  O
  O4       1.0000 0.54836  0.25000  0.04836  Biso   1.000  O
  O5       1.0000 0.97399  0.75000  0.97399  Biso   1.000  O
  O6       1.0000 0.02601  0.25000  0.02601  Biso   1.000  O
  O7       1.0000 0.47399  0.75000  0.47399  Biso   1.000  O
  O8       1.0000 0.52601  0.25000  0.52601  Biso   1.000  O
  O9       1.0000 0.70836  0.68488  0.71991  Biso   1.000  O
  O10      1.0000 0.76854  0.18488  0.78009  Biso   1.000  O
  O11      1.0000 0.23146  0.68488  0.21991  Biso   1.000  O
  O12      1.0000 0.29164  0.18488  0.28009  Biso   1.000  O
  O13      1.0000 0.70836  0.81512  0.71991  Biso   1.000  O
  O14      1.0000 0.76854  0.31512  0.78009  Biso   1.000  O
  O15      1.0000 0.23146  0.81512  0.21991  Biso   1.000  O
  O16      1.0000 0.29164  0.31512  0.28009  Biso   1.000  O
  O17      1.0000 0.98124  0.62751  0.48124  Biso   1.000  O
  O18      1.0000 0.01876  0.12751  0.51876  Biso   1.000  O
  O19      1.0000 0.48124  0.61013  0.98124  Biso   1.000  O
  O20      1.0000 0.51876  0.11013  0.01876  Biso   1.000  O
  O21      1.0000 0.48124  0.88987  0.98124  Biso   1.000  O
  O22      1.0000 0.51876  0.38987  0.01876  Biso   1.000  O
  O23      1.0000 0.98124  0.87249  0.48124  Biso   1.000  O
  O24      1.0000 0.01876  0.37249  0.51876  Biso   1.000  O
  O25      1.0000 0.98387  0.87249  0.98387  Biso   1.000  O
  O26      1.0000 0.01613  0.37249  0.01613  Biso   1.000  O
  O27      1.0000 0.48387  0.88987  0.48387  Biso   1.000  O
  O28      1.0000 0.51613  0.38987  0.51613  Biso   1.000  O
  O29      1.0000 0.98387  0.62751  0.98387  Biso   1.000  O
  O30      1.0000 0.01613  0.12751  0.01613  Biso   1.000  O
  O31      1.0000 0.48387  0.61013  0.48387  Biso   1.000  O
  O32      1.0000 0.51613  0.11013  0.51613  Biso   1.000  O
  O33      1.0000 0.76478  0.54813  0.73351  Biso   1.000  O
  O34      1.0000 0.79776  0.04813  0.76649  Biso   1.000  O
  O35      1.0000 0.20224  0.54813  0.23351  Biso   1.000  O
  O36      1.0000 0.23522  0.04813  0.26649  Biso   1.000  O
  O37      1.0000 0.76478  0.95187  0.73351  Biso   1.000  O
  O38      1.0000 0.79776  0.45187  0.76649  Biso   1.000  O
  O39      1.0000 0.20224  0.95187  0.23351  Biso   1.000  O
  O40      1.0000 0.23522  0.45187  0.26649  Biso   1.000  O
