data_image0
_cell_length_a       5.55277
_cell_length_b       30.3622
_cell_length_c       5.55277
_cell_angle_alpha    90
_cell_angle_beta     90
_cell_angle_gamma    90

_symmetry_space_group_name_H-M    "P 1"
_symmetry_int_tables_number       1

loop_
  _symmetry_equiv_pos_as_xyz
  'x, y, z'

loop_
  _atom_site_label
  _atom_site_occupancy
  _atom_site_fract_x
  _atom_site_fract_y
  _atom_site_fract_z
  _atom_site_thermal_displace_type
  _atom_site_B_iso_or_equiv
  _atom_site_type_symbol
  K1       1.0000 0.00000  0.50000  0.50000  Biso   1.000  K
  K2       1.0000 0.00000  0.00000  0.50000  Biso   1.000  K
  K3       1.0000 0.50000  0.50000  0.00000  Biso   1.000  K
  K4       1.0000 0.50000  0.00000  0.00000  Biso   1.000  K
  Pb1      1.0000 0.94535  0.67663  0.49034  Biso   1.000  Pb
  Pb2      1.0000 0.05465  0.17663  0.50966  Biso   1.000  Pb
  Pb3      1.0000 0.53533  0.67663  0.99034  Biso   1.000  Pb
  Pb4      1.0000 0.46467  0.17663  0.00966  Biso   1.000  Pb
  Pb5      1.0000 0.53533  0.82337  0.99034  Biso   1.000  Pb
  Pb6      1.0000 0.46467  0.32337  0.00966  Biso   1.000  Pb
  Pb7      1.0000 0.94535  0.82337  0.49034  Biso   1.000  Pb
  Pb8      1.0000 0.05465  0.32337  0.50966  Biso   1.000  Pb
  Nb1      1.0000 0.99577  0.75000  0.00000  Biso   1.000  Nb
  Nb2      1.0000 0.00423  0.25000  0.00000  Biso   1.000  Nb
  Nb3      1.0000 0.50423  0.75000  0.50000  Biso   1.000  Nb
  Nb4      1.0000 0.49577  0.25000  0.50000  Biso   1.000  Nb
  Ta1      1.0000 0.97238  0.60642  0.95988  Biso   1.000  Ta
  Ta2      1.0000 0.02762  0.10642  0.04012  Biso   1.000  Ta
  Ta3      1.0000 0.44738  0.60642  0.45988  Biso   1.000  Ta
  Ta4      1.0000 0.55262  0.10642  0.54012  Biso   1.000  Ta
  Ta5      1.0000 0.97238  0.89358  0.95988  Biso   1.000  Ta
  Ta6      1.0000 0.02762  0.39358  0.04012  Biso   1.000  Ta
  Ta7      1.0000 0.44738  0.89358  0.45988  Biso   1.000  Ta
  Ta8      1.0000 0.55262  0.39358  0.54012  Biso   1.000  Ta
  O1       1.0000 0.20164  0.75000  0.70164  Biso   1.000  O
  O2       1.0000 0.29836  0.25000  0.79836  Biso   1.000  O
  O3       1.0000 0.70164  0.75000  0.20164  Biso   1.000  O
  O4       1.0000 0.79836  0.25000  0.29836  Biso   1.000  O
  O5       1.0000 0.22399  0.75000  0.22399  Biso   1.000  O
  O6       1.0000 0.27601  0.25000  0.27601  Biso   1.000  O
  O7       1.0000 0.72399  0.75000  0.72399  Biso   1.000  O
  O8       1.0000 0.77601  0.25000  0.77601  Biso   1.000  O
  O9       1.0000 0.93103  0.68488  0.96991  Biso   1.000  O
  O10      1.0000 0.06897  0.18488  0.03009  Biso   1.000  O
  O11      1.0000 0.50880  0.68488  0.46991  Biso   1.000  O
  O12      1.0000 0.49120  0.18488  0.53009  Biso   1.000  O
  O13      1.0000 0.93103  0.81512  0.96991  Biso   1.000  O
  O14      1.0000 0.06897  0.31512  0.03009  Biso   1.000  O
  O15      1.0000 0.50880  0.81512  0.46991  Biso   1.000  O
  O16      1.0000 0.49120  0.31512  0.53009  Biso   1.000  O
  O17      1.0000 0.23124  0.63320  0.73124  Biso   1.000  O
  O18      1.0000 0.26876  0.10444  0.76876  Biso   1.000  O
  O19      1.0000 0.73124  0.60444  0.23124  Biso   1.000  O
  O20      1.0000 0.76876  0.13320  0.26876  Biso   1.000  O
  O21      1.0000 0.73124  0.89556  0.23124  Biso   1.000  O
  O22      1.0000 0.76876  0.36680  0.26876  Biso   1.000  O
  O23      1.0000 0.23124  0.86680  0.73124  Biso   1.000  O
  O24      1.0000 0.26876  0.39556  0.76876  Biso   1.000  O
  O25      1.0000 0.23387  0.86680  0.23387  Biso   1.000  O
  O26      1.0000 0.26613  0.39556  0.26613  Biso   1.000  O
  O27      1.0000 0.73387  0.89556  0.73387  Biso   1.000  O
  O28      1.0000 0.76613  0.36680  0.76613  Biso   1.000  O
  O29      1.0000 0.23387  0.63320  0.23387  Biso   1.000  O
  O30      1.0000 0.26613  0.10444  0.26613  Biso   1.000  O
  O31      1.0000 0.73387  0.60444  0.73387  Biso   1.000  O
  O32      1.0000 0.76613  0.13320  0.76613  Biso   1.000  O
  O33      1.0000 0.00521  0.54813  0.98351  Biso   1.000  O
  O34      1.0000 0.99479  0.04813  0.01649  Biso   1.000  O
  O35      1.0000 0.46181  0.54813  0.48351  Biso   1.000  O
  O36      1.0000 0.53819  0.04813  0.51649  Biso   1.000  O
  O37      1.0000 0.00521  0.95187  0.98351  Biso   1.000  O
  O38      1.0000 0.99479  0.45187  0.01649  Biso   1.000  O
  O39      1.0000 0.46181  0.95187  0.48351  Biso   1.000  O
  O40      1.0000 0.53819  0.45187  0.51649  Biso   1.000  O
