data_image0
_cell_length_a       7.8528
_cell_length_b       30.3622
_cell_length_c       3.9264
_cell_angle_alpha    90
_cell_angle_beta     90
_cell_angle_gamma    90

_symmetry_space_group_name_H-M    "P 1"
_symmetry_int_tables_number       1

loop_
  _symmetry_equiv_pos_as_xyz
  'x, y, z'

loop_
  _atom_site_label
  _atom_site_occupancy
  _atom_site_fract_x
  _atom_site_fract_y
  _atom_site_fract_z
  _atom_site_thermal_displace_type
  _atom_site_B_iso_or_equiv
  _atom_site_type_symbol
  K1       1.0000 0.00000  0.30906  0.00000  Biso   1.000  K
  K2       1.0000 0.00000  0.69094  0.00000  Biso   1.000  K
  K3       1.0000 0.50000  0.19094  0.00000  Biso   1.000  K
  K4       1.0000 0.50000  0.80906  0.00000  Biso   1.000  K
  Pb1      1.0000 0.00000  0.07680  0.01931  Biso   1.000  Pb
  Pb2      1.0000 0.00000  0.56994  0.98069  Biso   1.000  Pb
  Pb3      1.0000 0.50000  0.06994  0.01931  Biso   1.000  Pb
  Pb4      1.0000 0.50000  0.57680  0.98069  Biso   1.000  Pb
  Pb5      1.0000 0.50000  0.93006  0.01931  Biso   1.000  Pb
  Pb6      1.0000 0.50000  0.42320  0.98069  Biso   1.000  Pb
  Pb7      1.0000 0.00000  0.92320  0.01931  Biso   1.000  Pb
  Pb8      1.0000 0.00000  0.43006  0.98069  Biso   1.000  Pb
  Nb1      1.0000 0.75179  0.00000  0.50000  Biso   1.000  Nb
  Nb2      1.0000 0.74821  0.50000  0.50000  Biso   1.000  Nb
  Nb3      1.0000 0.24821  0.00000  0.50000  Biso   1.000  Nb
  Nb4      1.0000 0.25179  0.50000  0.50000  Biso   1.000  Nb
  Ta1      1.0000 0.74474  0.14358  0.58024  Biso   1.000  Ta
  Ta2      1.0000 0.75526  0.64358  0.41976  Biso   1.000  Ta
  Ta3      1.0000 0.25526  0.14358  0.58024  Biso   1.000  Ta
  Ta4      1.0000 0.24474  0.64358  0.41976  Biso   1.000  Ta
  Ta5      1.0000 0.74474  0.85642  0.58024  Biso   1.000  Ta
  Ta6      1.0000 0.75526  0.35642  0.41976  Biso   1.000  Ta
  Ta7      1.0000 0.25526  0.85642  0.58024  Biso   1.000  Ta
  Ta8      1.0000 0.24474  0.35642  0.41976  Biso   1.000  Ta
  O1       1.0000 0.00000  0.00000  0.59672  Biso   1.000  O
  O2       1.0000 0.00000  0.50000  0.40328  Biso   1.000  O
  O3       1.0000 0.50000  0.00000  0.59672  Biso   1.000  O
  O4       1.0000 0.50000  0.50000  0.40328  Biso   1.000  O
  O5       1.0000 0.74926  0.00000  0.05202  Biso   1.000  O
  O6       1.0000 0.75074  0.50000  0.94798  Biso   1.000  O
  O7       1.0000 0.25074  0.00000  0.05202  Biso   1.000  O
  O8       1.0000 0.24926  0.50000  0.94798  Biso   1.000  O
  O9       1.0000 0.75600  0.06512  0.56017  Biso   1.000  O
  O10      1.0000 0.74400  0.56512  0.43983  Biso   1.000  O
  O11      1.0000 0.24400  0.06512  0.56017  Biso   1.000  O
  O12      1.0000 0.25600  0.56512  0.43983  Biso   1.000  O
  O13      1.0000 0.75600  0.93488  0.56017  Biso   1.000  O
  O14      1.0000 0.74400  0.43488  0.43983  Biso   1.000  O
  O15      1.0000 0.24400  0.93488  0.56017  Biso   1.000  O
  O16      1.0000 0.25600  0.43488  0.43983  Biso   1.000  O
  O17      1.0000 0.00000  0.14368  0.53753  Biso   1.000  O
  O18      1.0000 0.00000  0.61868  0.46247  Biso   1.000  O
  O19      1.0000 0.50000  0.11868  0.53753  Biso   1.000  O
  O20      1.0000 0.50000  0.64368  0.46247  Biso   1.000  O
  O21      1.0000 0.50000  0.88132  0.53753  Biso   1.000  O
  O22      1.0000 0.50000  0.35632  0.46247  Biso   1.000  O
  O23      1.0000 0.00000  0.85632  0.53753  Biso   1.000  O
  O24      1.0000 0.00000  0.38132  0.46247  Biso   1.000  O
  O25      1.0000 0.74863  0.86882  0.03225  Biso   1.000  O
  O26      1.0000 0.75137  0.36882  0.96775  Biso   1.000  O
  O27      1.0000 0.25137  0.86882  0.03225  Biso   1.000  O
  O28      1.0000 0.24863  0.36882  0.96775  Biso   1.000  O
  O29      1.0000 0.74863  0.13118  0.03225  Biso   1.000  O
  O30      1.0000 0.75137  0.63118  0.96775  Biso   1.000  O
  O31      1.0000 0.25137  0.13118  0.03225  Biso   1.000  O
  O32      1.0000 0.24863  0.63118  0.96775  Biso   1.000  O
  O33      1.0000 0.72721  0.20187  0.53297  Biso   1.000  O
  O34      1.0000 0.77279  0.70187  0.46703  Biso   1.000  O
  O35      1.0000 0.27279  0.20187  0.53297  Biso   1.000  O
  O36      1.0000 0.22721  0.70187  0.46703  Biso   1.000  O
  O37      1.0000 0.72721  0.79813  0.53297  Biso   1.000  O
  O38      1.0000 0.77279  0.29813  0.46703  Biso   1.000  O
  O39      1.0000 0.27279  0.79813  0.53297  Biso   1.000  O
  O40      1.0000 0.22721  0.29813  0.46703  Biso   1.000  O
