data_image0
_cell_length_a       3.9264
_cell_length_b       30.3622
_cell_length_c       3.9264
_cell_angle_alpha    90
_cell_angle_beta     90
_cell_angle_gamma    90

_symmetry_space_group_name_H-M    "P 1"
_symmetry_int_tables_number       1

loop_
  _symmetry_equiv_pos_as_xyz
  'x, y, z'

loop_
  _atom_site_label
  _atom_site_occupancy
  _atom_site_fract_x
  _atom_site_fract_y
  _atom_site_fract_z
  _atom_site_thermal_displace_type
  _atom_site_B_iso_or_equiv
  _atom_site_type_symbol
  K1       1.0000 0.50000  0.75000  0.50000  Biso   1.000  K
  K2       1.0000 0.50000  0.25000  0.50000  Biso   1.000  K
  Pb1      1.0000 0.49034  0.92663  0.54423  Biso   1.000  Pb
  Pb2      1.0000 0.50966  0.42663  0.52491  Biso   1.000  Pb
  Pb3      1.0000 0.49034  0.07337  0.54423  Biso   1.000  Pb
  Pb4      1.0000 0.50966  0.57337  0.52491  Biso   1.000  Pb
  Nb1      1.0000 0.00000  0.00000  0.03360  Biso   1.000  Nb
  Nb2      1.0000 0.00000  0.50000  0.03360  Biso   1.000  Nb
  Ta1      1.0000 0.95988  0.85642  0.01568  Biso   1.000  Ta
  Ta2      1.0000 0.04012  0.35642  0.93544  Biso   1.000  Ta
  Ta3      1.0000 0.95988  0.14358  0.01568  Biso   1.000  Ta
  Ta4      1.0000 0.04012  0.64358  0.93544  Biso   1.000  Ta
  O1       1.0000 0.95164  0.00000  0.48644  Biso   1.000  O
  O2       1.0000 0.04836  0.50000  0.43442  Biso   1.000  O
  O3       1.0000 0.47399  0.00000  0.96467  Biso   1.000  O
  O4       1.0000 0.52601  0.50000  0.86795  Biso   1.000  O
  O5       1.0000 0.96991  0.93488  0.98392  Biso   1.000  O
  O6       1.0000 0.03009  0.43488  0.92375  Biso   1.000  O
  O7       1.0000 0.96991  0.06512  0.98392  Biso   1.000  O
  O8       1.0000 0.03009  0.56512  0.92375  Biso   1.000  O
  O9       1.0000 0.98124  0.86882  0.49667  Biso   1.000  O
  O10      1.0000 0.01876  0.36882  0.46442  Biso   1.000  O
  O11      1.0000 0.98124  0.13118  0.49667  Biso   1.000  O
  O12      1.0000 0.01876  0.63118  0.46442  Biso   1.000  O
  O13      1.0000 0.48387  0.13118  0.99366  Biso   1.000  O
  O14      1.0000 0.51613  0.63118  0.95613  Biso   1.000  O
  O15      1.0000 0.48387  0.86882  0.99366  Biso   1.000  O
  O16      1.0000 0.51613  0.36882  0.95613  Biso   1.000  O
  O17      1.0000 0.98351  0.79813  0.00169  Biso   1.000  O
  O18      1.0000 0.01649  0.29813  0.96872  Biso   1.000  O
  O19      1.0000 0.98351  0.20187  0.00169  Biso   1.000  O
  O20      1.0000 0.01649  0.70187  0.96872  Biso   1.000  O
