data_image0
_cell_length_a       7.34535
_cell_length_b       7.34535
_cell_length_c       7.34535
_cell_angle_alpha    90
_cell_angle_beta     90
_cell_angle_gamma    90

_symmetry_space_group_name_H-M    "P 1"
_symmetry_int_tables_number       1

loop_
  _symmetry_equiv_pos_as_xyz
  'x, y, z'

loop_
  _atom_site_label
  _atom_site_occupancy
  _atom_site_fract_x
  _atom_site_fract_y
  _atom_site_fract_z
  _atom_site_thermal_displace_type
  _atom_site_B_iso_or_equiv
  _atom_site_type_symbol
  Y1       1.0000 1.00000  0.01773  0.00000  Biso   1.000  Y
  Y2       1.0000 0.50000  0.01773  0.00000  Biso   1.000  Y
  Y3       1.0000 1.00000  0.51773  0.00000  Biso   1.000  Y
  Y4       1.0000 0.50000  0.51773  0.00000  Biso   1.000  Y
  Y5       1.0000 1.00000  0.01773  0.50000  Biso   1.000  Y
  Y6       1.0000 0.50000  0.01773  0.50000  Biso   1.000  Y
  Y7       1.0000 1.00000  0.51773  0.50000  Biso   1.000  Y
  Y8       1.0000 0.50000  0.51773  0.50000  Biso   1.000  Y
  Al1      1.0000 0.25000  0.25977  0.25000  Biso   1.000  Al
  Al2      1.0000 0.75000  0.25977  0.25000  Biso   1.000  Al
  Al3      1.0000 0.25000  0.75977  0.25000  Biso   1.000  Al
  Al4      1.0000 0.75000  0.75977  0.25000  Biso   1.000  Al
  Al5      1.0000 0.25000  0.25977  0.75000  Biso   1.000  Al
  Al6      1.0000 0.75000  0.25977  0.75000  Biso   1.000  Al
  Al7      1.0000 0.25000  0.75977  0.75000  Biso   1.000  Al
  Al8      1.0000 0.75000  0.75977  0.75000  Biso   1.000  Al
  O1       1.0000 0.25000  0.25752  0.00000  Biso   1.000  O
  O2       1.0000 0.75000  0.25752  0.00000  Biso   1.000  O
  O3       1.0000 0.25000  0.75752  0.00000  Biso   1.000  O
  O4       1.0000 0.75000  0.75752  0.00000  Biso   1.000  O
  O5       1.0000 0.25000  0.25752  0.50000  Biso   1.000  O
  O6       1.0000 0.75000  0.25752  0.50000  Biso   1.000  O
  O7       1.0000 0.25000  0.75752  0.50000  Biso   1.000  O
  O8       1.0000 0.75000  0.75752  0.50000  Biso   1.000  O
  O9       1.0000 1.00000  0.25752  0.25000  Biso   1.000  O
  O10      1.0000 0.50000  0.25752  0.25000  Biso   1.000  O
  O11      1.0000 1.00000  0.75752  0.25000  Biso   1.000  O
  O12      1.0000 0.50000  0.75752  0.25000  Biso   1.000  O
  O13      1.0000 1.00000  0.25752  0.75000  Biso   1.000  O
  O14      1.0000 0.50000  0.25752  0.75000  Biso   1.000  O
  O15      1.0000 1.00000  0.75752  0.75000  Biso   1.000  O
  O16      1.0000 0.50000  0.75752  0.75000  Biso   1.000  O
  O17      1.0000 0.25000  0.00752  0.25000  Biso   1.000  O
  O18      1.0000 0.75000  0.00752  0.25000  Biso   1.000  O
  O19      1.0000 0.25000  0.50752  0.25000  Biso   1.000  O
  O20      1.0000 0.75000  0.50752  0.25000  Biso   1.000  O
  O21      1.0000 0.25000  0.00752  0.75000  Biso   1.000  O
  O22      1.0000 0.75000  0.00752  0.75000  Biso   1.000  O
  O23      1.0000 0.25000  0.50752  0.75000  Biso   1.000  O
  O24      1.0000 0.75000  0.50752  0.75000  Biso   1.000  O
