data_image0
_cell_length_a       15.6806
_cell_length_b       15.6806
_cell_length_c       5.55277
_cell_angle_alpha    100.198
_cell_angle_beta     100.198
_cell_angle_gamma    20.3969

_symmetry_space_group_name_H-M    "P 1"
_symmetry_int_tables_number       1

loop_
  _symmetry_equiv_pos_as_xyz
  'x, y, z'

loop_
  _atom_site_label
  _atom_site_occupancy
  _atom_site_fract_x
  _atom_site_fract_y
  _atom_site_fract_z
  _atom_site_thermal_displace_type
  _atom_site_B_iso_or_equiv
  _atom_site_type_symbol
  K1       1.0000 0.75505  0.24495  0.75000  Biso   1.000  K
  K2       1.0000 0.24495  0.75505  0.25000  Biso   1.000  K
  Pb1      1.0000 0.92242  0.43084  0.92663  Biso   1.000  Pb
  Pb2      1.0000 0.43084  0.92242  0.42663  Biso   1.000  Pb
  Pb3      1.0000 0.56916  0.07758  0.57337  Biso   1.000  Pb
  Pb4      1.0000 0.07758  0.56916  0.07337  Biso   1.000  Pb
  Nb1      1.0000 0.50000  0.00000  0.00000  Biso   1.000  Nb
  Nb2      1.0000 0.00000  0.50000  0.50000  Biso   1.000  Nb
  Ta1      1.0000 0.35545  0.85739  0.85642  Biso   1.000  Ta
  Ta2      1.0000 0.85739  0.35545  0.35642  Biso   1.000  Ta
  Ta3      1.0000 0.64455  0.14261  0.14358  Biso   1.000  Ta
  Ta4      1.0000 0.14261  0.64455  0.64358  Biso   1.000  Ta
  O1       1.0000 0.25442  0.23942  0.73942  Biso   1.000  O
  O2       1.0000 0.74558  0.76058  0.26058  Biso   1.000  O
  O3       1.0000 0.76058  0.74558  0.76058  Biso   1.000  O
  O4       1.0000 0.23942  0.25442  0.23942  Biso   1.000  O
  O5       1.0000 0.44076  0.92900  0.93488  Biso   1.000  O
  O6       1.0000 0.92900  0.44076  0.43488  Biso   1.000  O
  O7       1.0000 0.55924  0.07100  0.06512  Biso   1.000  O
  O8       1.0000 0.07100  0.55924  0.56512  Biso   1.000  O
  O9       1.0000 0.12051  0.12071  0.62071  Biso   1.000  O
  O10      1.0000 0.61713  0.61693  0.11693  Biso   1.000  O
  O11      1.0000 0.87949  0.87929  0.37929  Biso   1.000  O
  O12      1.0000 0.38287  0.38307  0.88307  Biso   1.000  O
  O13      1.0000 0.87929  0.87949  0.87929  Biso   1.000  O
  O14      1.0000 0.38307  0.38287  0.38307  Biso   1.000  O
  O15      1.0000 0.61693  0.61713  0.61693  Biso   1.000  O
  O16      1.0000 0.12071  0.12051  0.12071  Biso   1.000  O
  O17      1.0000 0.29430  0.80196  0.79813  Biso   1.000  O
  O18      1.0000 0.80196  0.29430  0.29813  Biso   1.000  O
  O19      1.0000 0.70570  0.19804  0.20187  Biso   1.000  O
  O20      1.0000 0.19804  0.70570  0.70187  Biso   1.000  O
