data_image0
_cell_length_a       15.6806
_cell_length_b       15.6806
_cell_length_c       15.6806
_cell_angle_alpha    29.0021
_cell_angle_beta     159.603
_cell_angle_gamma    159.603

_symmetry_space_group_name_H-M    "P 1"
_symmetry_int_tables_number       1

loop_
  _symmetry_equiv_pos_as_xyz
  'x, y, z'

loop_
  _atom_site_label
  _atom_site_occupancy
  _atom_site_fract_x
  _atom_site_fract_y
  _atom_site_fract_z
  _atom_site_thermal_displace_type
  _atom_site_B_iso_or_equiv
  _atom_site_type_symbol
  K1       1.0000 0.75000  0.75000  0.00000  Biso   1.000  K
  K2       1.0000 0.75000  0.25000  0.50000  Biso   1.000  K
  Pb1      1.0000 0.75675  0.92663  0.18338  Biso   1.000  Pb
  Pb2      1.0000 0.74325  0.42663  0.66988  Biso   1.000  Pb
  Pb3      1.0000 0.74325  0.57337  0.81662  Biso   1.000  Pb
  Pb4      1.0000 0.75675  0.07337  0.33012  Biso   1.000  Pb
  Nb1      1.0000 0.24937  0.00000  0.74937  Biso   1.000  Nb
  Nb2      1.0000 0.25063  0.50000  0.25063  Biso   1.000  Nb
  Ta1      1.0000 0.25187  0.85642  0.60829  Biso   1.000  Ta
  Ta2      1.0000 0.24813  0.35642  0.10455  Biso   1.000  Ta
  Ta3      1.0000 0.25187  0.14358  0.89545  Biso   1.000  Ta
  Ta4      1.0000 0.24813  0.64358  0.39171  Biso   1.000  Ta
  O1       1.0000 0.26500  0.25750  0.50750  Biso   1.000  O
  O2       1.0000 0.23500  0.74250  0.99250  Biso   1.000  O
  O3       1.0000 0.75000  0.24250  0.00750  Biso   1.000  O
  O4       1.0000 0.75000  0.75750  0.49250  Biso   1.000  O
  O5       1.0000 0.24417  0.93488  0.67905  Biso   1.000  O
  O6       1.0000 0.25583  0.43488  0.19071  Biso   1.000  O
  O7       1.0000 0.24417  0.06512  0.80929  Biso   1.000  O
  O8       1.0000 0.25583  0.56512  0.32095  Biso   1.000  O
  O9       1.0000 0.24979  0.11656  0.36656  Biso   1.000  O
  O10      1.0000 0.25021  0.62108  0.87108  Biso   1.000  O
  O11      1.0000 0.25021  0.87913  0.12913  Biso   1.000  O
  O12      1.0000 0.24979  0.38323  0.63323  Biso   1.000  O
  O13      1.0000 0.75000  0.37913  0.12892  Biso   1.000  O
  O14      1.0000 0.75000  0.88323  0.63344  Biso   1.000  O
  O15      1.0000 0.75000  0.12108  0.87087  Biso   1.000  O
  O16      1.0000 0.75000  0.61656  0.36677  Biso   1.000  O
  O17      1.0000 0.25325  0.79813  0.55138  Biso   1.000  O
  O18      1.0000 0.24675  0.29813  0.04488  Biso   1.000  O
  O19      1.0000 0.25325  0.20187  0.95512  Biso   1.000  O
  O20      1.0000 0.24675  0.70187  0.44862  Biso   1.000  O
