data_image0
_cell_length_a       15.6806
_cell_length_b       5.55277
_cell_length_c       15.6806
_cell_angle_alpha    79.8016
_cell_angle_beta     20.3969
_cell_angle_gamma    79.8016

_symmetry_space_group_name_H-M    "P 1"
_symmetry_int_tables_number       1

loop_
  _symmetry_equiv_pos_as_xyz
  'x, y, z'

loop_
  _atom_site_label
  _atom_site_occupancy
  _atom_site_fract_x
  _atom_site_fract_y
  _atom_site_fract_z
  _atom_site_thermal_displace_type
  _atom_site_B_iso_or_equiv
  _atom_site_type_symbol
  K1       1.0000 0.75000  0.25000  0.75000  Biso   1.000  K
  K2       1.0000 0.25000  0.75000  0.25000  Biso   1.000  K
  Pb1      1.0000 0.57078  0.42404  0.57596  Biso   1.000  Pb
  Pb2      1.0000 0.07078  0.92404  0.07596  Biso   1.000  Pb
  Pb3      1.0000 0.92404  0.07078  0.92922  Biso   1.000  Pb
  Pb4      1.0000 0.42404  0.57078  0.42922  Biso   1.000  Pb
  Nb1      1.0000 0.99748  0.49748  0.00252  Biso   1.000  Nb
  Nb2      1.0000 0.49748  0.99748  0.50252  Biso   1.000  Nb
  Ta1      1.0000 0.14541  0.35825  0.14175  Biso   1.000  Ta
  Ta2      1.0000 0.64541  0.85825  0.64175  Biso   1.000  Ta
  Ta3      1.0000 0.85825  0.64541  0.85459  Biso   1.000  Ta
  Ta4      1.0000 0.35825  0.14541  0.35459  Biso   1.000  Ta
  O1       1.0000 0.24547  0.76047  0.75453  Biso   1.000  O
  O2       1.0000 0.76047  0.24547  0.23953  Biso   1.000  O
  O3       1.0000 0.74878  0.74878  0.25122  Biso   1.000  O
  O4       1.0000 0.26378  0.26378  0.73622  Biso   1.000  O
  O5       1.0000 0.06858  0.43834  0.06166  Biso   1.000  O
  O6       1.0000 0.56858  0.93834  0.56166  Biso   1.000  O
  O7       1.0000 0.93834  0.56858  0.93142  Biso   1.000  O
  O8       1.0000 0.43834  0.06858  0.43142  Biso   1.000  O
  O9       1.0000 0.38274  0.62018  0.87962  Biso   1.000  O
  O10      1.0000 0.88254  0.12038  0.37982  Biso   1.000  O
  O11      1.0000 0.62018  0.38274  0.11746  Biso   1.000  O
  O12      1.0000 0.12038  0.88254  0.61726  Biso   1.000  O
  O13      1.0000 0.62081  0.88317  0.11683  Biso   1.000  O
  O14      1.0000 0.12060  0.38296  0.61704  Biso   1.000  O
  O15      1.0000 0.88317  0.62081  0.37919  Biso   1.000  O
  O16      1.0000 0.38296  0.12060  0.87940  Biso   1.000  O
  O17      1.0000 0.20298  0.29924  0.20076  Biso   1.000  O
  O18      1.0000 0.70298  0.79924  0.70076  Biso   1.000  O
  O19      1.0000 0.79924  0.70298  0.79702  Biso   1.000  O
  O20      1.0000 0.29924  0.20298  0.29702  Biso   1.000  O
