data_image0
_cell_length_a       5.55277
_cell_length_b       30.3622
_cell_length_c       7.8528
_cell_angle_alpha    90
_cell_angle_beta     135
_cell_angle_gamma    90

_symmetry_space_group_name_H-M    "P 1"
_symmetry_int_tables_number       1

loop_
  _symmetry_equiv_pos_as_xyz
  'x, y, z'

loop_
  _atom_site_label
  _atom_site_occupancy
  _atom_site_fract_x
  _atom_site_fract_y
  _atom_site_fract_z
  _atom_site_thermal_displace_type
  _atom_site_B_iso_or_equiv
  _atom_site_type_symbol
  K1       1.0000 0.98990  0.00000  0.24495  Biso   1.000  K
  K2       1.0000 0.01010  0.50000  0.25505  Biso   1.000  K
  K3       1.0000 0.01010  0.00000  0.75505  Biso   1.000  K
  K4       1.0000 0.98990  0.50000  0.74495  Biso   1.000  K
  Pb1      1.0000 0.00698  0.82337  0.25421  Biso   1.000  Pb
  Pb2      1.0000 0.99302  0.32337  0.24579  Biso   1.000  Pb
  Pb3      1.0000 0.99012  0.82337  0.74579  Biso   1.000  Pb
  Pb4      1.0000 0.00988  0.32337  0.75421  Biso   1.000  Pb
  Pb5      1.0000 0.00698  0.67663  0.75421  Biso   1.000  Pb
  Pb6      1.0000 0.99302  0.17663  0.74579  Biso   1.000  Pb
  Pb7      1.0000 0.99012  0.67663  0.24579  Biso   1.000  Pb
  Pb8      1.0000 0.00988  0.17663  0.25421  Biso   1.000  Pb
  Nb1      1.0000 0.50000  0.75000  0.75000  Biso   1.000  Nb
  Nb2      1.0000 0.50000  0.25000  0.75000  Biso   1.000  Nb
  Nb3      1.0000 0.50000  0.75000  0.25000  Biso   1.000  Nb
  Nb4      1.0000 0.50000  0.25000  0.25000  Biso   1.000  Nb
  Ta1      1.0000 0.49398  0.89358  0.75097  Biso   1.000  Ta
  Ta2      1.0000 0.50602  0.39358  0.74903  Biso   1.000  Ta
  Ta3      1.0000 0.49398  0.89358  0.24903  Biso   1.000  Ta
  Ta4      1.0000 0.50602  0.39358  0.25097  Biso   1.000  Ta
  Ta5      1.0000 0.49398  0.60642  0.74903  Biso   1.000  Ta
  Ta6      1.0000 0.50602  0.10642  0.75097  Biso   1.000  Ta
  Ta7      1.0000 0.49398  0.60642  0.25097  Biso   1.000  Ta
  Ta8      1.0000 0.50602  0.10642  0.24903  Biso   1.000  Ta
  O1       1.0000 0.99610  0.75000  0.00168  Biso   1.000  O
  O2       1.0000 0.00390  0.25000  0.99832  Biso   1.000  O
  O3       1.0000 0.99610  0.75000  0.50168  Biso   1.000  O
  O4       1.0000 0.00390  0.25000  0.49832  Biso   1.000  O
  O5       1.0000 0.49275  0.74383  0.49832  Biso   1.000  O
  O6       1.0000 0.50725  0.25617  0.50168  Biso   1.000  O
  O7       1.0000 0.49275  0.75617  0.99832  Biso   1.000  O
  O8       1.0000 0.50725  0.24383  0.00168  Biso   1.000  O
  O9       1.0000 0.49549  0.81512  0.74412  Biso   1.000  O
  O10      1.0000 0.50451  0.31512  0.75588  Biso   1.000  O
  O11      1.0000 0.49549  0.81512  0.25588  Biso   1.000  O
  O12      1.0000 0.50451  0.31512  0.24412  Biso   1.000  O
  O13      1.0000 0.49549  0.68488  0.75588  Biso   1.000  O
  O14      1.0000 0.50451  0.18488  0.74412  Biso   1.000  O
  O15      1.0000 0.49549  0.68488  0.24412  Biso   1.000  O
  O16      1.0000 0.50451  0.18488  0.25588  Biso   1.000  O
  O17      1.0000 0.99758  0.88118  0.00020  Biso   1.000  O
  O18      1.0000 0.00242  0.38118  0.99980  Biso   1.000  O
  O19      1.0000 0.99758  0.88118  0.50020  Biso   1.000  O
  O20      1.0000 0.00242  0.38118  0.49980  Biso   1.000  O
  O21      1.0000 0.99758  0.61882  0.50020  Biso   1.000  O
  O22      1.0000 0.00242  0.11882  0.49980  Biso   1.000  O
  O23      1.0000 0.99758  0.61882  0.00020  Biso   1.000  O
  O24      1.0000 0.00242  0.11882  0.99980  Biso   1.000  O
  O25      1.0000 0.49719  0.62240  0.49980  Biso   1.000  O
  O26      1.0000 0.50281  0.11524  0.50020  Biso   1.000  O
  O27      1.0000 0.49719  0.61524  0.99980  Biso   1.000  O
  O28      1.0000 0.50281  0.12240  0.00020  Biso   1.000  O
  O29      1.0000 0.49719  0.88476  0.49980  Biso   1.000  O
  O30      1.0000 0.50281  0.37760  0.50020  Biso   1.000  O
  O31      1.0000 0.49719  0.87760  0.99980  Biso   1.000  O
  O32      1.0000 0.50281  0.38476  0.00020  Biso   1.000  O
  O33      1.0000 0.49753  0.95187  0.75383  Biso   1.000  O
  O34      1.0000 0.50247  0.45187  0.74617  Biso   1.000  O
  O35      1.0000 0.49753  0.95187  0.24617  Biso   1.000  O
  O36      1.0000 0.50247  0.45187  0.25383  Biso   1.000  O
  O37      1.0000 0.49753  0.54813  0.74617  Biso   1.000  O
  O38      1.0000 0.50247  0.04813  0.75383  Biso   1.000  O
  O39      1.0000 0.49753  0.54813  0.25383  Biso   1.000  O
  O40      1.0000 0.50247  0.04813  0.24617  Biso   1.000  O
