data_image0
_cell_length_a       15.6806
_cell_length_b       15.6806
_cell_length_c       5.55277
_cell_angle_alpha    79.8016
_cell_angle_beta     79.8016
_cell_angle_gamma    20.3969

_symmetry_space_group_name_H-M    "P 1"
_symmetry_int_tables_number       1

loop_
  _symmetry_equiv_pos_as_xyz
  'x, y, z'

loop_
  _atom_site_label
  _atom_site_occupancy
  _atom_site_fract_x
  _atom_site_fract_y
  _atom_site_fract_z
  _atom_site_thermal_displace_type
  _atom_site_B_iso_or_equiv
  _atom_site_type_symbol
  K1       1.0000 0.25505  0.74495  0.74495  Biso   1.000  K
  K2       1.0000 0.74495  0.25505  0.25505  Biso   1.000  K
  Pb1      1.0000 0.07590  0.57084  0.92410  Biso   1.000  Pb
  Pb2      1.0000 0.57084  0.07590  0.42916  Biso   1.000  Pb
  Pb3      1.0000 0.41567  0.93759  0.58433  Biso   1.000  Pb
  Pb4      1.0000 0.93759  0.41567  0.06241  Biso   1.000  Pb
  Nb1      1.0000 0.49937  0.00063  0.99937  Biso   1.000  Nb
  Nb2      1.0000 0.00063  0.49937  0.50063  Biso   1.000  Nb
  Ta1      1.0000 0.64449  0.14267  0.85733  Biso   1.000  Ta
  Ta2      1.0000 0.14267  0.64449  0.35551  Biso   1.000  Ta
  Ta3      1.0000 0.35926  0.85358  0.14642  Biso   1.000  Ta
  Ta4      1.0000 0.85358  0.35926  0.64074  Biso   1.000  Ta
  O1       1.0000 0.25000  0.25000  0.25000  Biso   1.000  O
  O2       1.0000 0.75000  0.75000  0.75000  Biso   1.000  O
  O3       1.0000 0.74383  0.74383  0.25617  Biso   1.000  O
  O4       1.0000 0.25617  0.25617  0.74383  Biso   1.000  O
  O5       1.0000 0.56516  0.06508  0.93492  Biso   1.000  O
  O6       1.0000 0.06508  0.56516  0.43484  Biso   1.000  O
  O7       1.0000 0.42317  0.94659  0.05341  Biso   1.000  O
  O8       1.0000 0.94659  0.42317  0.57683  Biso   1.000  O
  O9       1.0000 0.38118  0.38118  0.11882  Biso   1.000  O
  O10      1.0000 0.88118  0.88118  0.61882  Biso   1.000  O
  O11      1.0000 0.61882  0.61882  0.88118  Biso   1.000  O
  O12      1.0000 0.11882  0.11882  0.38118  Biso   1.000  O
  O13      1.0000 0.62671  0.62671  0.37329  Biso   1.000  O
  O14      1.0000 0.11093  0.11093  0.88907  Biso   1.000  O
  O15      1.0000 0.88045  0.88045  0.11955  Biso   1.000  O
  O16      1.0000 0.38191  0.38191  0.61809  Biso   1.000  O
  O17      1.0000 0.70129  0.20245  0.79755  Biso   1.000  O
  O18      1.0000 0.20245  0.70129  0.29871  Biso   1.000  O
  O19      1.0000 0.30522  0.79104  0.20896  Biso   1.000  O
  O20      1.0000 0.79104  0.30522  0.69478  Biso   1.000  O
