data_image0
_cell_length_a       15.6806
_cell_length_b       15.6806
_cell_length_c       5.55277
_cell_angle_alpha    100.198
_cell_angle_beta     100.198
_cell_angle_gamma    150.998

_symmetry_space_group_name_H-M    "P 1"
_symmetry_int_tables_number       1

loop_
  _symmetry_equiv_pos_as_xyz
  'x, y, z'

loop_
  _atom_site_label
  _atom_site_occupancy
  _atom_site_fract_x
  _atom_site_fract_y
  _atom_site_fract_z
  _atom_site_thermal_displace_type
  _atom_site_B_iso_or_equiv
  _atom_site_type_symbol
  K1       1.0000 0.24495  0.24495  0.49495  Biso   1.000  K
  K2       1.0000 0.75505  0.75505  0.50505  Biso   1.000  K
  Pb1      1.0000 0.42825  0.07499  0.49903  Biso   1.000  Pb
  Pb2      1.0000 0.91982  0.56656  0.49060  Biso   1.000  Pb
  Pb3      1.0000 0.07499  0.42825  0.49903  Biso   1.000  Pb
  Pb4      1.0000 0.56656  0.91982  0.49060  Biso   1.000  Pb
  Nb1      1.0000 0.49748  0.99748  0.99496  Biso   1.000  Nb
  Nb2      1.0000 0.99748  0.49748  0.99496  Biso   1.000  Nb
  Ta1      1.0000 0.35728  0.14444  0.00270  Biso   1.000  Ta
  Ta2      1.0000 0.85922  0.64638  0.00463  Biso   1.000  Ta
  Ta3      1.0000 0.64638  0.85922  0.00463  Biso   1.000  Ta
  Ta4      1.0000 0.14444  0.35728  0.00270  Biso   1.000  Ta
  O1       1.0000 0.75605  0.24988  0.50594  Biso   1.000  O
  O2       1.0000 0.24988  0.75605  0.50594  Biso   1.000  O
  O3       1.0000 0.75936  0.25319  0.01255  Biso   1.000  O
  O4       1.0000 0.25319  0.75936  0.01255  Biso   1.000  O
  O5       1.0000 0.44422  0.07446  0.01280  Biso   1.000  O
  O6       1.0000 0.93247  0.56271  0.00105  Biso   1.000  O
  O7       1.0000 0.56271  0.93247  0.00105  Biso   1.000  O
  O8       1.0000 0.07446  0.44422  0.01280  Biso   1.000  O
  O9       1.0000 0.61849  0.38443  0.50292  Biso   1.000  O
  O10      1.0000 0.12207  0.88085  0.50292  Biso   1.000  O
  O11      1.0000 0.38443  0.61849  0.50292  Biso   1.000  O
  O12      1.0000 0.88085  0.12207  0.50292  Biso   1.000  O
  O13      1.0000 0.88127  0.12249  0.00377  Biso   1.000  O
  O14      1.0000 0.38485  0.61891  0.00377  Biso   1.000  O
  O15      1.0000 0.61891  0.38485  0.00377  Biso   1.000  O
  O16      1.0000 0.12249  0.88127  0.00377  Biso   1.000  O
  O17      1.0000 0.29541  0.19915  0.99839  Biso   1.000  O
  O18      1.0000 0.80307  0.70681  0.00605  Biso   1.000  O
  O19      1.0000 0.70681  0.80307  0.00605  Biso   1.000  O
  O20      1.0000 0.19915  0.29541  0.99839  Biso   1.000  O
