data_image0
_cell_length_a       15.6806
_cell_length_b       15.6806
_cell_length_c       15.6806
_cell_angle_alpha    159.603
_cell_angle_beta     159.603
_cell_angle_gamma    29.0021

_symmetry_space_group_name_H-M    "P 1"
_symmetry_int_tables_number       1

loop_
  _symmetry_equiv_pos_as_xyz
  'x, y, z'

loop_
  _atom_site_label
  _atom_site_occupancy
  _atom_site_fract_x
  _atom_site_fract_y
  _atom_site_fract_z
  _atom_site_thermal_displace_type
  _atom_site_B_iso_or_equiv
  _atom_site_type_symbol
  K1       1.0000 0.75000  0.99495  0.24495  Biso   1.000  K
  K2       1.0000 0.25000  0.50505  0.25505  Biso   1.000  K
  Pb1      1.0000 0.58012  0.82758  0.26096  Biso   1.000  Pb
  Pb2      1.0000 0.06662  0.31916  0.23904  Biso   1.000  Pb
  Pb3      1.0000 0.91988  0.18084  0.24747  Biso   1.000  Pb
  Pb4      1.0000 0.43338  0.67242  0.25253  Biso   1.000  Pb
  Nb1      1.0000 0.99937  0.75000  0.74937  Biso   1.000  Nb
  Nb2      1.0000 0.50063  0.25000  0.75063  Biso   1.000  Nb
  Ta1      1.0000 0.14545  0.89261  0.75091  Biso   1.000  Ta
  Ta2      1.0000 0.64171  0.39455  0.74909  Biso   1.000  Ta
  Ta3      1.0000 0.85829  0.60739  0.75284  Biso   1.000  Ta
  Ta4      1.0000 0.35455  0.10545  0.74716  Biso   1.000  Ta
  O1       1.0000 0.74692  0.99692  0.75000  Biso   1.000  O
  O2       1.0000 0.25308  0.50308  0.75000  Biso   1.000  O
  O3       1.0000 0.24692  0.99692  0.25000  Biso   1.000  O
  O4       1.0000 0.75308  0.50308  0.25000  Biso   1.000  O
  O5       1.0000 0.05929  0.82100  0.75004  Biso   1.000  O
  O6       1.0000 0.57095  0.30924  0.74996  Biso   1.000  O
  O7       1.0000 0.92905  0.67900  0.73829  Biso   1.000  O
  O8       1.0000 0.44071  0.19076  0.76171  Biso   1.000  O
  O9       1.0000 0.88513  0.13513  0.75000  Biso   1.000  O
  O10      1.0000 0.37723  0.62723  0.75000  Biso   1.000  O
  O11      1.0000 0.11919  0.36919  0.75000  Biso   1.000  O
  O12      1.0000 0.61845  0.86845  0.75000  Biso   1.000  O
  O13      1.0000 0.12277  0.87277  0.25000  Biso   1.000  O
  O14      1.0000 0.61487  0.36487  0.25000  Biso   1.000  O
  O15      1.0000 0.38081  0.13081  0.25000  Biso   1.000  O
  O16      1.0000 0.88155  0.63155  0.25000  Biso   1.000  O
  O17      1.0000 0.20512  0.94804  0.74942  Biso   1.000  O
  O18      1.0000 0.69862  0.45570  0.75058  Biso   1.000  O
  O19      1.0000 0.80138  0.55196  0.75709  Biso   1.000  O
  O20      1.0000 0.29488  0.04430  0.74291  Biso   1.000  O
