data_image0
_cell_length_a       15.6806
_cell_length_b       5.55277
_cell_length_c       15.6806
_cell_angle_alpha    79.8016
_cell_angle_beta     20.3969
_cell_angle_gamma    79.8016

_symmetry_space_group_name_H-M    "P 1"
_symmetry_int_tables_number       1

loop_
  _symmetry_equiv_pos_as_xyz
  'x, y, z'

loop_
  _atom_site_label
  _atom_site_occupancy
  _atom_site_fract_x
  _atom_site_fract_y
  _atom_site_fract_z
  _atom_site_thermal_displace_type
  _atom_site_B_iso_or_equiv
  _atom_site_type_symbol
  K1       1.0000 0.75505  0.24495  0.24495  Biso   1.000  K
  K2       1.0000 0.24495  0.75505  0.75505  Biso   1.000  K
  Pb1      1.0000 0.56656  0.42825  0.08018  Biso   1.000  Pb
  Pb2      1.0000 0.07499  0.91982  0.57175  Biso   1.000  Pb
  Pb3      1.0000 0.91982  0.07499  0.43344  Biso   1.000  Pb
  Pb4      1.0000 0.42825  0.56656  0.92501  Biso   1.000  Pb
  Nb1      1.0000 0.49748  0.99748  0.00252  Biso   1.000  Nb
  Nb2      1.0000 0.99748  0.49748  0.50252  Biso   1.000  Nb
  Ta1      1.0000 0.64638  0.85922  0.14078  Biso   1.000  Ta
  Ta2      1.0000 0.14444  0.35728  0.64272  Biso   1.000  Ta
  Ta3      1.0000 0.35728  0.14444  0.85556  Biso   1.000  Ta
  Ta4      1.0000 0.85922  0.64638  0.35362  Biso   1.000  Ta
  O1       1.0000 0.25628  0.25628  0.24372  Biso   1.000  O
  O2       1.0000 0.75628  0.75628  0.74372  Biso   1.000  O
  O3       1.0000 0.24680  0.75913  0.24087  Biso   1.000  O
  O4       1.0000 0.75913  0.24680  0.75320  Biso   1.000  O
  O5       1.0000 0.56271  0.93247  0.06753  Biso   1.000  O
  O6       1.0000 0.07446  0.44422  0.55578  Biso   1.000  O
  O7       1.0000 0.44422  0.07446  0.92554  Biso   1.000  O
  O8       1.0000 0.93247  0.56271  0.43729  Biso   1.000  O
  O9       1.0000 0.38306  0.12070  0.37930  Biso   1.000  O
  O10      1.0000 0.88306  0.62070  0.87930  Biso   1.000  O
  O11      1.0000 0.62070  0.88306  0.61694  Biso   1.000  O
  O12      1.0000 0.12070  0.38306  0.11694  Biso   1.000  O
  O13      1.0000 0.12386  0.87906  0.12094  Biso   1.000  O
  O14      1.0000 0.61670  0.38622  0.61378  Biso   1.000  O
  O15      1.0000 0.38622  0.61670  0.38330  Biso   1.000  O
  O16      1.0000 0.87906  0.12386  0.87614  Biso   1.000  O
  O17      1.0000 0.70681  0.80307  0.19693  Biso   1.000  O
  O18      1.0000 0.19915  0.29541  0.70459  Biso   1.000  O
  O19      1.0000 0.29541  0.19915  0.80085  Biso   1.000  O
  O20      1.0000 0.80307  0.70681  0.29319  Biso   1.000  O
