data_image0
_cell_length_a       15.6806
_cell_length_b       15.6806
_cell_length_c       5.55277
_cell_angle_alpha    100.198
_cell_angle_beta     100.198
_cell_angle_gamma    150.998

_symmetry_space_group_name_H-M    "P 1"
_symmetry_int_tables_number       1

loop_
  _symmetry_equiv_pos_as_xyz
  'x, y, z'

loop_
  _atom_site_label
  _atom_site_occupancy
  _atom_site_fract_x
  _atom_site_fract_y
  _atom_site_fract_z
  _atom_site_thermal_displace_type
  _atom_site_B_iso_or_equiv
  _atom_site_type_symbol
  K1       1.0000 0.24495  0.24495  0.98990  Biso   1.000  K
  K2       1.0000 0.75505  0.75505  0.01010  Biso   1.000  K
  Pb1      1.0000 0.42410  0.07084  0.00168  Biso   1.000  Pb
  Pb2      1.0000 0.92916  0.57590  0.99832  Biso   1.000  Pb
  Pb3      1.0000 0.08433  0.43759  0.01518  Biso   1.000  Pb
  Pb4      1.0000 0.56241  0.91567  0.98482  Biso   1.000  Pb
  Nb1      1.0000 0.49937  0.99937  0.49937  Biso   1.000  Nb
  Nb2      1.0000 0.00063  0.50063  0.50063  Biso   1.000  Nb
  Ta1      1.0000 0.35733  0.14449  0.50187  Biso   1.000  Ta
  Ta2      1.0000 0.85551  0.64267  0.49813  Biso   1.000  Ta
  Ta3      1.0000 0.64642  0.85926  0.50187  Biso   1.000  Ta
  Ta4      1.0000 0.14074  0.35358  0.49813  Biso   1.000  Ta
  O1       1.0000 0.75000  0.25000  0.00000  Biso   1.000  O
  O2       1.0000 0.25000  0.75000  0.00000  Biso   1.000  O
  O3       1.0000 0.75617  0.24383  0.50000  Biso   1.000  O
  O4       1.0000 0.24383  0.75617  0.50000  Biso   1.000  O
  O5       1.0000 0.43492  0.06516  0.49417  Biso   1.000  O
  O6       1.0000 0.93484  0.56508  0.50583  Biso   1.000  O
  O7       1.0000 0.55341  0.92317  0.49417  Biso   1.000  O
  O8       1.0000 0.07683  0.44659  0.50583  Biso   1.000  O
  O9       1.0000 0.62098  0.37902  0.00000  Biso   1.000  O
  O10      1.0000 0.11666  0.88334  0.00000  Biso   1.000  O
  O11      1.0000 0.38334  0.61666  0.00000  Biso   1.000  O
  O12      1.0000 0.87902  0.12098  0.00000  Biso   1.000  O
  O13      1.0000 0.87544  0.12456  0.50000  Biso   1.000  O
  O14      1.0000 0.38692  0.61308  0.50000  Biso   1.000  O
  O15      1.0000 0.61740  0.38260  0.50000  Biso   1.000  O
  O16      1.0000 0.12024  0.87976  0.50000  Biso   1.000  O
  O17      1.0000 0.29755  0.20129  0.50325  Biso   1.000  O
  O18      1.0000 0.79871  0.70245  0.49675  Biso   1.000  O
  O19      1.0000 0.70896  0.80522  0.50325  Biso   1.000  O
  O20      1.0000 0.19478  0.29104  0.49675  Biso   1.000  O
