data_image0
_cell_length_a       15.6806
_cell_length_b       15.6806
_cell_length_c       5.55277
_cell_angle_alpha    100.198
_cell_angle_beta     100.198
_cell_angle_gamma    150.998

_symmetry_space_group_name_H-M    "P 1"
_symmetry_int_tables_number       1

loop_
  _symmetry_equiv_pos_as_xyz
  'x, y, z'

loop_
  _atom_site_label
  _atom_site_occupancy
  _atom_site_fract_x
  _atom_site_fract_y
  _atom_site_fract_z
  _atom_site_thermal_displace_type
  _atom_site_B_iso_or_equiv
  _atom_site_type_symbol
  K1       1.0000 0.24495  0.24495  0.48990  Biso   1.000  K
  K2       1.0000 0.75505  0.75505  0.51010  Biso   1.000  K
  Pb1      1.0000 0.43084  0.07758  0.50324  Biso   1.000  Pb
  Pb2      1.0000 0.92242  0.56916  0.48639  Biso   1.000  Pb
  Pb3      1.0000 0.07758  0.43084  0.50324  Biso   1.000  Pb
  Pb4      1.0000 0.56916  0.92242  0.48639  Biso   1.000  Pb
  Nb1      1.0000 0.50000  0.00000  0.99496  Biso   1.000  Nb
  Nb2      1.0000 0.00000  0.50000  0.99496  Biso   1.000  Nb
  Ta1      1.0000 0.35545  0.14261  0.00367  Biso   1.000  Ta
  Ta2      1.0000 0.85739  0.64455  0.00367  Biso   1.000  Ta
  Ta3      1.0000 0.64455  0.85739  0.00367  Biso   1.000  Ta
  Ta4      1.0000 0.14261  0.35545  0.00367  Biso   1.000  Ta
  O1       1.0000 0.74669  0.24669  0.50594  Biso   1.000  O
  O2       1.0000 0.24669  0.74669  0.50594  Biso   1.000  O
  O3       1.0000 0.75948  0.24714  0.01255  Biso   1.000  O
  O4       1.0000 0.24714  0.75948  0.01255  Biso   1.000  O
  O5       1.0000 0.44076  0.07100  0.00692  Biso   1.000  O
  O6       1.0000 0.92900  0.55924  0.00692  Biso   1.000  O
  O7       1.0000 0.55924  0.92900  0.00692  Biso   1.000  O
  O8       1.0000 0.07100  0.44076  0.00692  Biso   1.000  O
  O9       1.0000 0.61840  0.38076  0.50292  Biso   1.000  O
  O10      1.0000 0.11840  0.88076  0.50292  Biso   1.000  O
  O11      1.0000 0.38076  0.61840  0.50292  Biso   1.000  O
  O12      1.0000 0.88076  0.11840  0.50292  Biso   1.000  O
  O13      1.0000 0.87802  0.12282  0.00377  Biso   1.000  O
  O14      1.0000 0.38518  0.61566  0.00377  Biso   1.000  O
  O15      1.0000 0.61566  0.38518  0.00377  Biso   1.000  O
  O16      1.0000 0.12282  0.87802  0.00377  Biso   1.000  O
  O17      1.0000 0.29430  0.19804  0.00222  Biso   1.000  O
  O18      1.0000 0.80196  0.70570  0.00222  Biso   1.000  O
  O19      1.0000 0.70570  0.80196  0.00222  Biso   1.000  O
  O20      1.0000 0.19804  0.29430  0.00222  Biso   1.000  O
