data_image0
_cell_length_a       5.55277
_cell_length_b       5.55277
_cell_length_c       30.3622
_cell_angle_alpha    90
_cell_angle_beta     90
_cell_angle_gamma    90

_symmetry_space_group_name_H-M    "P 1"
_symmetry_int_tables_number       1

loop_
  _symmetry_equiv_pos_as_xyz
  'x, y, z'

loop_
  _atom_site_label
  _atom_site_occupancy
  _atom_site_fract_x
  _atom_site_fract_y
  _atom_site_fract_z
  _atom_site_thermal_displace_type
  _atom_site_B_iso_or_equiv
  _atom_site_type_symbol
  K1       1.0000 0.75000  0.75000  0.75000  Biso   1.000  K
  K2       1.0000 0.75000  0.75000  0.25000  Biso   1.000  K
  K3       1.0000 0.25000  0.25000  0.75000  Biso   1.000  K
  K4       1.0000 0.25000  0.25000  0.25000  Biso   1.000  K
  Pb1      1.0000 0.76144  0.75206  0.92663  Biso   1.000  Pb
  Pb2      1.0000 0.74794  0.73856  0.42663  Biso   1.000  Pb
  Pb3      1.0000 0.23856  0.24794  0.92663  Biso   1.000  Pb
  Pb4      1.0000 0.25206  0.26144  0.42663  Biso   1.000  Pb
  Pb5      1.0000 0.24794  0.23856  0.07337  Biso   1.000  Pb
  Pb6      1.0000 0.26144  0.25206  0.57337  Biso   1.000  Pb
  Pb7      1.0000 0.75206  0.76144  0.07337  Biso   1.000  Pb
  Pb8      1.0000 0.73856  0.74794  0.57337  Biso   1.000  Pb
  Nb1      1.0000 0.75063  0.24937  0.00000  Biso   1.000  Nb
  Nb2      1.0000 0.74937  0.25063  0.50000  Biso   1.000  Nb
  Nb3      1.0000 0.24937  0.75063  0.00000  Biso   1.000  Nb
  Nb4      1.0000 0.25063  0.74937  0.50000  Biso   1.000  Nb
  Ta1      1.0000 0.74707  0.25082  0.85642  Biso   1.000  Ta
  Ta2      1.0000 0.75082  0.24707  0.35642  Biso   1.000  Ta
  Ta3      1.0000 0.25293  0.74918  0.85642  Biso   1.000  Ta
  Ta4      1.0000 0.24918  0.75293  0.35642  Biso   1.000  Ta
  Ta5      1.0000 0.74918  0.25293  0.14358  Biso   1.000  Ta
  Ta6      1.0000 0.75293  0.24918  0.64358  Biso   1.000  Ta
  Ta7      1.0000 0.25082  0.74707  0.14358  Biso   1.000  Ta
  Ta8      1.0000 0.24707  0.75082  0.64358  Biso   1.000  Ta
  O1       1.0000 0.50000  0.00000  0.99339  Biso   1.000  O
  O2       1.0000 0.50000  0.00000  0.49339  Biso   1.000  O
  O3       1.0000 0.00000  0.50000  0.00661  Biso   1.000  O
  O4       1.0000 0.00000  0.50000  0.50661  Biso   1.000  O
  O5       1.0000 0.50000  0.50000  0.00000  Biso   1.000  O
  O6       1.0000 0.50000  0.50000  0.50000  Biso   1.000  O
  O7       1.0000 0.00000  0.00000  0.00000  Biso   1.000  O
  O8       1.0000 0.00000  0.00000  0.50000  Biso   1.000  O
  O9       1.0000 0.76214  0.25048  0.93488  Biso   1.000  O
  O10      1.0000 0.75048  0.26214  0.43488  Biso   1.000  O
  O11      1.0000 0.23786  0.74952  0.93488  Biso   1.000  O
  O12      1.0000 0.24952  0.73786  0.43488  Biso   1.000  O
  O13      1.0000 0.74952  0.23786  0.06512  Biso   1.000  O
  O14      1.0000 0.73786  0.24952  0.56512  Biso   1.000  O
  O15      1.0000 0.25048  0.76214  0.06512  Biso   1.000  O
  O16      1.0000 0.26214  0.75048  0.56512  Biso   1.000  O
  O17      1.0000 0.50000  0.00000  0.87253  Biso   1.000  O
  O18      1.0000 0.50000  0.00000  0.37253  Biso   1.000  O
  O19      1.0000 0.00000  0.50000  0.86511  Biso   1.000  O
  O20      1.0000 0.00000  0.50000  0.36511  Biso   1.000  O
  O21      1.0000 0.00000  0.50000  0.12747  Biso   1.000  O
  O22      1.0000 0.00000  0.50000  0.62747  Biso   1.000  O
  O23      1.0000 0.50000  0.00000  0.13489  Biso   1.000  O
  O24      1.0000 0.50000  0.00000  0.63489  Biso   1.000  O
  O25      1.0000 0.50000  0.50000  0.12687  Biso   1.000  O
  O26      1.0000 0.50000  0.50000  0.63549  Biso   1.000  O
  O27      1.0000 0.00000  0.00000  0.13549  Biso   1.000  O
  O28      1.0000 0.00000  0.00000  0.62687  Biso   1.000  O
  O29      1.0000 0.50000  0.50000  0.87313  Biso   1.000  O
  O30      1.0000 0.50000  0.50000  0.36451  Biso   1.000  O
  O31      1.0000 0.00000  0.00000  0.86451  Biso   1.000  O
  O32      1.0000 0.00000  0.00000  0.37313  Biso   1.000  O
  O33      1.0000 0.74301  0.24952  0.79813  Biso   1.000  O
  O34      1.0000 0.74952  0.24301  0.29813  Biso   1.000  O
  O35      1.0000 0.25699  0.75048  0.79813  Biso   1.000  O
  O36      1.0000 0.25048  0.75699  0.29813  Biso   1.000  O
  O37      1.0000 0.75048  0.25699  0.20187  Biso   1.000  O
  O38      1.0000 0.75699  0.25048  0.70187  Biso   1.000  O
  O39      1.0000 0.24952  0.74301  0.20187  Biso   1.000  O
  O40      1.0000 0.24301  0.74952  0.70187  Biso   1.000  O
