data_image0
_cell_length_a       15.6806
_cell_length_b       15.6806
_cell_length_c       15.6806
_cell_angle_alpha    159.603
_cell_angle_beta     29.0021
_cell_angle_gamma    159.603

_symmetry_space_group_name_H-M    "P 1"
_symmetry_int_tables_number       1

loop_
  _symmetry_equiv_pos_as_xyz
  'x, y, z'

loop_
  _atom_site_label
  _atom_site_occupancy
  _atom_site_fract_x
  _atom_site_fract_y
  _atom_site_fract_z
  _atom_site_thermal_displace_type
  _atom_site_B_iso_or_equiv
  _atom_site_type_symbol
  K1       1.0000 0.00000  0.50000  0.50000  Biso   1.000  K
  K2       1.0000 0.50000  0.50000  0.00000  Biso   1.000  K
  Pb1      1.0000 0.81662  0.49325  0.32337  Biso   1.000  Pb
  Pb2      1.0000 0.33012  0.50675  0.82337  Biso   1.000  Pb
  Pb3      1.0000 0.18338  0.50675  0.67663  Biso   1.000  Pb
  Pb4      1.0000 0.66988  0.49325  0.17663  Biso   1.000  Pb
  Nb1      1.0000 0.74937  0.99937  0.75000  Biso   1.000  Nb
  Nb2      1.0000 0.25063  0.00063  0.25000  Biso   1.000  Nb
  Ta1      1.0000 0.89545  0.00187  0.89358  Biso   1.000  Ta
  Ta2      1.0000 0.39171  0.99813  0.39358  Biso   1.000  Ta
  Ta3      1.0000 0.60829  0.00187  0.60642  Biso   1.000  Ta
  Ta4      1.0000 0.10455  0.99813  0.10642  Biso   1.000  Ta
  O1       1.0000 0.00000  0.00000  0.50000  Biso   1.000  O
  O2       1.0000 0.50000  0.00000  0.00000  Biso   1.000  O
  O3       1.0000 0.00000  0.50000  0.00000  Biso   1.000  O
  O4       1.0000 0.50000  0.50000  0.50000  Biso   1.000  O
  O5       1.0000 0.80929  0.99417  0.81512  Biso   1.000  O
  O6       1.0000 0.32095  0.00583  0.31512  Biso   1.000  O
  O7       1.0000 0.67905  0.99417  0.68488  Biso   1.000  O
  O8       1.0000 0.19071  0.00583  0.18488  Biso   1.000  O
  O9       1.0000 0.12902  0.00000  0.62902  Biso   1.000  O
  O10      1.0000 0.63334  0.00000  0.13334  Biso   1.000  O
  O11      1.0000 0.36666  0.00000  0.86666  Biso   1.000  O
  O12      1.0000 0.87098  0.00000  0.37098  Biso   1.000  O
  O13      1.0000 0.87098  0.50000  0.87098  Biso   1.000  O
  O14      1.0000 0.36666  0.50000  0.36666  Biso   1.000  O
  O15      1.0000 0.12902  0.50000  0.12902  Biso   1.000  O
  O16      1.0000 0.63334  0.50000  0.63334  Biso   1.000  O
  O17      1.0000 0.95512  0.00325  0.95187  Biso   1.000  O
  O18      1.0000 0.44862  0.99675  0.45187  Biso   1.000  O
  O19      1.0000 0.55138  0.00325  0.54813  Biso   1.000  O
  O20      1.0000 0.04488  0.99675  0.04813  Biso   1.000  O
