data_image0
_cell_length_a       15.6806
_cell_length_b       15.6806
_cell_length_c       5.55277
_cell_angle_alpha    100.198
_cell_angle_beta     100.198
_cell_angle_gamma    150.998

_symmetry_space_group_name_H-M    "P 1"
_symmetry_int_tables_number       1

loop_
  _symmetry_equiv_pos_as_xyz
  'x, y, z'

loop_
  _atom_site_label
  _atom_site_occupancy
  _atom_site_fract_x
  _atom_site_fract_y
  _atom_site_fract_z
  _atom_site_thermal_displace_type
  _atom_site_B_iso_or_equiv
  _atom_site_type_symbol
  K1       1.0000 0.75000  0.25000  0.50000  Biso   1.000  K
  K2       1.0000 0.25000  0.75000  0.50000  Biso   1.000  K
  Pb1      1.0000 0.91729  0.06403  0.48807  Biso   1.000  Pb
  Pb2      1.0000 0.43079  0.57753  0.50156  Biso   1.000  Pb
  Pb3      1.0000 0.57753  0.43079  0.50156  Biso   1.000  Pb
  Pb4      1.0000 0.06403  0.91729  0.48807  Biso   1.000  Pb
  Nb1      1.0000 0.99685  0.99685  0.99432  Biso   1.000  Nb
  Nb2      1.0000 0.49811  0.49811  0.99559  Biso   1.000  Nb
  Ta1      1.0000 0.86013  0.14729  0.00554  Biso   1.000  Ta
  Ta2      1.0000 0.35638  0.64354  0.00179  Biso   1.000  Ta
  Ta3      1.0000 0.14729  0.86013  0.00554  Biso   1.000  Ta
  Ta4      1.0000 0.64354  0.35638  0.00179  Biso   1.000  Ta
  O1       1.0000 0.25297  0.25297  0.50594  Biso   1.000  O
  O2       1.0000 0.75297  0.75297  0.50594  Biso   1.000  O
  O3       1.0000 0.25628  0.25628  0.01255  Biso   1.000  O
  O4       1.0000 0.75628  0.75628  0.01255  Biso   1.000  O
  O5       1.0000 0.93251  0.06275  0.00109  Biso   1.000  O
  O6       1.0000 0.44417  0.57441  0.01276  Biso   1.000  O
  O7       1.0000 0.06275  0.93251  0.00109  Biso   1.000  O
  O8       1.0000 0.57441  0.44417  0.01276  Biso   1.000  O
  O9       1.0000 0.12244  0.38048  0.50292  Biso   1.000  O
  O10      1.0000 0.61812  0.88480  0.50292  Biso   1.000  O
  O11      1.0000 0.88480  0.61812  0.50292  Biso   1.000  O
  O12      1.0000 0.38048  0.12244  0.50292  Biso   1.000  O
  O13      1.0000 0.38091  0.12286  0.00377  Biso   1.000  O
  O14      1.0000 0.88522  0.61855  0.00377  Biso   1.000  O
  O15      1.0000 0.12286  0.38091  0.00377  Biso   1.000  O
  O16      1.0000 0.61855  0.88522  0.00377  Biso   1.000  O
  O17      1.0000 0.80249  0.20623  0.00547  Biso   1.000  O
  O18      1.0000 0.29598  0.69972  0.99896  Biso   1.000  O
  O19      1.0000 0.20623  0.80249  0.00547  Biso   1.000  O
  O20      1.0000 0.69972  0.29598  0.99896  Biso   1.000  O
