data_image0
_cell_length_a       5.55277
_cell_length_b       30.3622
_cell_length_c       5.55277
_cell_angle_alpha    90
_cell_angle_beta     90
_cell_angle_gamma    90

_symmetry_space_group_name_H-M    "P 1"
_symmetry_int_tables_number       1

loop_
  _symmetry_equiv_pos_as_xyz
  'x, y, z'

loop_
  _atom_site_label
  _atom_site_occupancy
  _atom_site_fract_x
  _atom_site_fract_y
  _atom_site_fract_z
  _atom_site_thermal_displace_type
  _atom_site_B_iso_or_equiv
  _atom_site_type_symbol
  K1       1.0000 0.00000  0.50000  0.50000  Biso   1.000  K
  K2       1.0000 0.00000  0.00000  0.50000  Biso   1.000  K
  K3       1.0000 0.50000  0.50000  0.00000  Biso   1.000  K
  K4       1.0000 0.50000  0.00000  0.00000  Biso   1.000  K
  Pb1      1.0000 0.99180  0.67663  0.50675  Biso   1.000  Pb
  Pb2      1.0000 0.00820  0.17663  0.49325  Biso   1.000  Pb
  Pb3      1.0000 0.50530  0.67663  0.99325  Biso   1.000  Pb
  Pb4      1.0000 0.49470  0.17663  0.00675  Biso   1.000  Pb
  Pb5      1.0000 0.50530  0.82337  0.99325  Biso   1.000  Pb
  Pb6      1.0000 0.49470  0.32337  0.00675  Biso   1.000  Pb
  Pb7      1.0000 0.99180  0.82337  0.50675  Biso   1.000  Pb
  Pb8      1.0000 0.00820  0.32337  0.49325  Biso   1.000  Pb
  Nb1      1.0000 0.99937  0.75000  0.99937  Biso   1.000  Nb
  Nb2      1.0000 0.00063  0.25000  0.00063  Biso   1.000  Nb
  Nb3      1.0000 0.50063  0.75000  0.50063  Biso   1.000  Nb
  Nb4      1.0000 0.49937  0.25000  0.49937  Biso   1.000  Nb
  Ta1      1.0000 0.99586  0.60642  0.00187  Biso   1.000  Ta
  Ta2      1.0000 0.00414  0.10642  0.99813  Biso   1.000  Ta
  Ta3      1.0000 0.49211  0.60642  0.49813  Biso   1.000  Ta
  Ta4      1.0000 0.50789  0.10642  0.50187  Biso   1.000  Ta
  Ta5      1.0000 0.99586  0.89358  0.00187  Biso   1.000  Ta
  Ta6      1.0000 0.00414  0.39358  0.99813  Biso   1.000  Ta
  Ta7      1.0000 0.49211  0.89358  0.49813  Biso   1.000  Ta
  Ta8      1.0000 0.50789  0.39358  0.50187  Biso   1.000  Ta
  O1       1.0000 0.24442  0.75000  0.74832  Biso   1.000  O
  O2       1.0000 0.25558  0.25000  0.75168  Biso   1.000  O
  O3       1.0000 0.74442  0.75000  0.24832  Biso   1.000  O
  O4       1.0000 0.75558  0.25000  0.25168  Biso   1.000  O
  O5       1.0000 0.24442  0.75000  0.25168  Biso   1.000  O
  O6       1.0000 0.25558  0.25000  0.24832  Biso   1.000  O
  O7       1.0000 0.74442  0.75000  0.75168  Biso   1.000  O
  O8       1.0000 0.75558  0.25000  0.74832  Biso   1.000  O
  O9       1.0000 0.98965  0.68488  0.99417  Biso   1.000  O
  O10      1.0000 0.01035  0.18488  0.00583  Biso   1.000  O
  O11      1.0000 0.50132  0.68488  0.50583  Biso   1.000  O
  O12      1.0000 0.49868  0.18488  0.49417  Biso   1.000  O
  O13      1.0000 0.98965  0.81512  0.99417  Biso   1.000  O
  O14      1.0000 0.01035  0.31512  0.00583  Biso   1.000  O
  O15      1.0000 0.50132  0.81512  0.50583  Biso   1.000  O
  O16      1.0000 0.49868  0.31512  0.49417  Biso   1.000  O
  O17      1.0000 0.24738  0.61882  0.74980  Biso   1.000  O
  O18      1.0000 0.25262  0.11882  0.75020  Biso   1.000  O
  O19      1.0000 0.74738  0.61882  0.24980  Biso   1.000  O
  O20      1.0000 0.75262  0.11882  0.25020  Biso   1.000  O
  O21      1.0000 0.74738  0.88118  0.24980  Biso   1.000  O
  O22      1.0000 0.75262  0.38118  0.25020  Biso   1.000  O
  O23      1.0000 0.24738  0.88118  0.74980  Biso   1.000  O
  O24      1.0000 0.25262  0.38118  0.75020  Biso   1.000  O
  O25      1.0000 0.24738  0.87687  0.25020  Biso   1.000  O
  O26      1.0000 0.25262  0.38549  0.24980  Biso   1.000  O
  O27      1.0000 0.74738  0.88549  0.75020  Biso   1.000  O
  O28      1.0000 0.75262  0.37687  0.74980  Biso   1.000  O
  O29      1.0000 0.24738  0.62313  0.25020  Biso   1.000  O
  O30      1.0000 0.25262  0.11451  0.24980  Biso   1.000  O
  O31      1.0000 0.74738  0.61451  0.75020  Biso   1.000  O
  O32      1.0000 0.75262  0.12313  0.74980  Biso   1.000  O
  O33      1.0000 0.00078  0.54813  0.00325  Biso   1.000  O
  O34      1.0000 0.99922  0.04813  0.99675  Biso   1.000  O
  O35      1.0000 0.49427  0.54813  0.49675  Biso   1.000  O
  O36      1.0000 0.50573  0.04813  0.50325  Biso   1.000  O
  O37      1.0000 0.00078  0.95187  0.00325  Biso   1.000  O
  O38      1.0000 0.99922  0.45187  0.99675  Biso   1.000  O
  O39      1.0000 0.49427  0.95187  0.49675  Biso   1.000  O
  O40      1.0000 0.50573  0.45187  0.50325  Biso   1.000  O
