data_image0
_cell_length_a       30.3622
_cell_length_b       5.55277
_cell_length_c       5.55277
_cell_angle_alpha    90
_cell_angle_beta     90
_cell_angle_gamma    90

_symmetry_space_group_name_H-M    "P 1"
_symmetry_int_tables_number       1

loop_
  _symmetry_equiv_pos_as_xyz
  'x, y, z'

loop_
  _atom_site_label
  _atom_site_occupancy
  _atom_site_fract_x
  _atom_site_fract_y
  _atom_site_fract_z
  _atom_site_thermal_displace_type
  _atom_site_B_iso_or_equiv
  _atom_site_type_symbol
  K1       1.0000 0.75000  0.23871  0.75000  Biso   1.000  K
  K2       1.0000 0.25000  0.23871  0.75000  Biso   1.000  K
  K3       1.0000 0.75000  0.76129  0.25000  Biso   1.000  K
  K4       1.0000 0.25000  0.76129  0.25000  Biso   1.000  K
  Pb1      1.0000 0.92663  0.25373  0.74325  Biso   1.000  Pb
  Pb2      1.0000 0.42663  0.25373  0.75675  Biso   1.000  Pb
  Pb3      1.0000 0.92663  0.74627  0.25675  Biso   1.000  Pb
  Pb4      1.0000 0.42663  0.74627  0.24325  Biso   1.000  Pb
  Pb5      1.0000 0.07337  0.74627  0.25675  Biso   1.000  Pb
  Pb6      1.0000 0.57337  0.74627  0.24325  Biso   1.000  Pb
  Pb7      1.0000 0.07337  0.25373  0.74325  Biso   1.000  Pb
  Pb8      1.0000 0.57337  0.25373  0.75675  Biso   1.000  Pb
  Nb1      1.0000 0.00000  0.74991  0.74937  Biso   1.000  Nb
  Nb2      1.0000 0.50000  0.74991  0.75063  Biso   1.000  Nb
  Nb3      1.0000 0.00000  0.25009  0.25063  Biso   1.000  Nb
  Nb4      1.0000 0.50000  0.25009  0.24937  Biso   1.000  Nb
  Ta1      1.0000 0.85642  0.75175  0.75187  Biso   1.000  Ta
  Ta2      1.0000 0.35642  0.75175  0.74813  Biso   1.000  Ta
  Ta3      1.0000 0.85642  0.24825  0.24813  Biso   1.000  Ta
  Ta4      1.0000 0.35642  0.24825  0.25187  Biso   1.000  Ta
  Ta5      1.0000 0.14358  0.75175  0.75187  Biso   1.000  Ta
  Ta6      1.0000 0.64358  0.75175  0.74813  Biso   1.000  Ta
  Ta7      1.0000 0.14358  0.24825  0.24813  Biso   1.000  Ta
  Ta8      1.0000 0.64358  0.24825  0.25187  Biso   1.000  Ta
  O1       1.0000 0.00000  0.50000  0.00000  Biso   1.000  O
  O2       1.0000 0.50000  0.50000  0.00000  Biso   1.000  O
  O3       1.0000 0.00000  0.00000  0.50000  Biso   1.000  O
  O4       1.0000 0.50000  0.00000  0.50000  Biso   1.000  O
  O5       1.0000 0.00000  0.00000  0.00000  Biso   1.000  O
  O6       1.0000 0.50000  0.00000  0.00000  Biso   1.000  O
  O7       1.0000 0.00000  0.50000  0.50000  Biso   1.000  O
  O8       1.0000 0.50000  0.50000  0.50000  Biso   1.000  O
  O9       1.0000 0.93488  0.74827  0.74417  Biso   1.000  O
  O10      1.0000 0.43488  0.74827  0.75583  Biso   1.000  O
  O11      1.0000 0.93488  0.25173  0.25583  Biso   1.000  O
  O12      1.0000 0.43488  0.25173  0.24417  Biso   1.000  O
  O13      1.0000 0.06512  0.74827  0.74417  Biso   1.000  O
  O14      1.0000 0.56512  0.74827  0.75583  Biso   1.000  O
  O15      1.0000 0.06512  0.25173  0.25583  Biso   1.000  O
  O16      1.0000 0.56512  0.25173  0.24417  Biso   1.000  O
  O17      1.0000 0.86967  0.50000  0.00000  Biso   1.000  O
  O18      1.0000 0.36536  0.50000  0.00000  Biso   1.000  O
  O19      1.0000 0.86797  0.00000  0.50000  Biso   1.000  O
  O20      1.0000 0.37228  0.00000  0.50000  Biso   1.000  O
  O21      1.0000 0.13203  0.00000  0.50000  Biso   1.000  O
  O22      1.0000 0.62772  0.00000  0.50000  Biso   1.000  O
  O23      1.0000 0.13033  0.50000  0.00000  Biso   1.000  O
  O24      1.0000 0.63464  0.50000  0.00000  Biso   1.000  O
  O25      1.0000 0.12772  0.00000  0.00000  Biso   1.000  O
  O26      1.0000 0.63203  0.00000  0.00000  Biso   1.000  O
  O27      1.0000 0.13464  0.50000  0.50000  Biso   1.000  O
  O28      1.0000 0.63033  0.50000  0.50000  Biso   1.000  O
  O29      1.0000 0.87228  0.00000  0.00000  Biso   1.000  O
  O30      1.0000 0.36797  0.00000  0.00000  Biso   1.000  O
  O31      1.0000 0.86536  0.50000  0.50000  Biso   1.000  O
  O32      1.0000 0.36967  0.50000  0.50000  Biso   1.000  O
  O33      1.0000 0.79813  0.75469  0.75325  Biso   1.000  O
  O34      1.0000 0.29813  0.75469  0.74675  Biso   1.000  O
  O35      1.0000 0.79813  0.24531  0.24675  Biso   1.000  O
  O36      1.0000 0.29813  0.24531  0.25325  Biso   1.000  O
  O37      1.0000 0.20187  0.75469  0.75325  Biso   1.000  O
  O38      1.0000 0.70187  0.75469  0.74675  Biso   1.000  O
  O39      1.0000 0.20187  0.24531  0.24675  Biso   1.000  O
  O40      1.0000 0.70187  0.24531  0.25325  Biso   1.000  O
