data_image0
_cell_length_a       15.6806
_cell_length_b       15.6806
_cell_length_c       7.8528
_cell_angle_alpha    90
_cell_angle_beta     90
_cell_angle_gamma    150.998

_symmetry_space_group_name_H-M    "P 1"
_symmetry_int_tables_number       1

loop_
  _symmetry_equiv_pos_as_xyz
  'x, y, z'

loop_
  _atom_site_label
  _atom_site_occupancy
  _atom_site_fract_x
  _atom_site_fract_y
  _atom_site_fract_z
  _atom_site_thermal_displace_type
  _atom_site_B_iso_or_equiv
  _atom_site_type_symbol
  K1       1.0000 0.75586  0.24414  0.75000  Biso   1.000  K
  K2       1.0000 0.25586  0.74414  0.75000  Biso   1.000  K
  K3       1.0000 0.74414  0.25586  0.25000  Biso   1.000  K
  K4       1.0000 0.24414  0.75586  0.25000  Biso   1.000  K
  Pb1      1.0000 0.57383  0.42617  0.75675  Biso   1.000  Pb
  Pb2      1.0000 0.07383  0.92617  0.74325  Biso   1.000  Pb
  Pb3      1.0000 0.57291  0.42709  0.24325  Biso   1.000  Pb
  Pb4      1.0000 0.07291  0.92709  0.25675  Biso   1.000  Pb
  Pb5      1.0000 0.42617  0.57383  0.24325  Biso   1.000  Pb
  Pb6      1.0000 0.92617  0.07383  0.25675  Biso   1.000  Pb
  Pb7      1.0000 0.42709  0.57291  0.75675  Biso   1.000  Pb
  Pb8      1.0000 0.92709  0.07291  0.74325  Biso   1.000  Pb
  Nb1      1.0000 0.74937  0.74937  0.00000  Biso   1.000  Nb
  Nb2      1.0000 0.25063  0.25063  0.00000  Biso   1.000  Nb
  Nb3      1.0000 0.75063  0.75063  0.50000  Biso   1.000  Nb
  Nb4      1.0000 0.24937  0.24937  0.50000  Biso   1.000  Nb
  Ta1      1.0000 0.89545  0.60829  0.00073  Biso   1.000  Ta
  Ta2      1.0000 0.39171  0.10455  0.00073  Biso   1.000  Ta
  Ta3      1.0000 0.89171  0.60455  0.49927  Biso   1.000  Ta
  Ta4      1.0000 0.39545  0.10829  0.49927  Biso   1.000  Ta
  Ta5      1.0000 0.60829  0.89545  0.99927  Biso   1.000  Ta
  Ta6      1.0000 0.10455  0.39171  0.99927  Biso   1.000  Ta
  Ta7      1.0000 0.60455  0.89171  0.50073  Biso   1.000  Ta
  Ta8      1.0000 0.10829  0.39545  0.50073  Biso   1.000  Ta
  O1       1.0000 0.74678  0.75322  0.75000  Biso   1.000  O
  O2       1.0000 0.24678  0.25322  0.75000  Biso   1.000  O
  O3       1.0000 0.75322  0.74678  0.25000  Biso   1.000  O
  O4       1.0000 0.25322  0.24678  0.25000  Biso   1.000  O
  O5       1.0000 0.00000  0.00000  0.00000  Biso   1.000  O
  O6       1.0000 0.50000  0.50000  0.00000  Biso   1.000  O
  O7       1.0000 0.00000  0.00000  0.50000  Biso   1.000  O
  O8       1.0000 0.50000  0.50000  0.50000  Biso   1.000  O
  O9       1.0000 0.80929  0.67905  0.99708  Biso   1.000  O
  O10      1.0000 0.32095  0.19071  0.99708  Biso   1.000  O
  O11      1.0000 0.82095  0.69071  0.50292  Biso   1.000  O
  O12      1.0000 0.30929  0.17905  0.50292  Biso   1.000  O
  O13      1.0000 0.67905  0.80929  0.00292  Biso   1.000  O
  O14      1.0000 0.19071  0.32095  0.00292  Biso   1.000  O
  O15      1.0000 0.69071  0.82095  0.49708  Biso   1.000  O
  O16      1.0000 0.17905  0.30929  0.49708  Biso   1.000  O
  O17      1.0000 0.88419  0.61581  0.75000  Biso   1.000  O
  O18      1.0000 0.38419  0.11581  0.75000  Biso   1.000  O
  O19      1.0000 0.87817  0.62183  0.25000  Biso   1.000  O
  O20      1.0000 0.37817  0.12183  0.25000  Biso   1.000  O
  O21      1.0000 0.61581  0.88419  0.25000  Biso   1.000  O
  O22      1.0000 0.11581  0.38419  0.25000  Biso   1.000  O
  O23      1.0000 0.62183  0.87817  0.75000  Biso   1.000  O
  O24      1.0000 0.12183  0.37817  0.75000  Biso   1.000  O
  O25      1.0000 0.87313  0.12687  0.99963  Biso   1.000  O
  O26      1.0000 0.36451  0.63549  0.99963  Biso   1.000  O
  O27      1.0000 0.86451  0.13549  0.50037  Biso   1.000  O
  O28      1.0000 0.37313  0.62687  0.50037  Biso   1.000  O
  O29      1.0000 0.12687  0.87313  0.00037  Biso   1.000  O
  O30      1.0000 0.63549  0.36451  0.00037  Biso   1.000  O
  O31      1.0000 0.13549  0.86451  0.49963  Biso   1.000  O
  O32      1.0000 0.62687  0.37313  0.49963  Biso   1.000  O
  O33      1.0000 0.95512  0.55138  0.00392  Biso   1.000  O
  O34      1.0000 0.44862  0.04488  0.00392  Biso   1.000  O
  O35      1.0000 0.94862  0.54488  0.49608  Biso   1.000  O
  O36      1.0000 0.45512  0.05138  0.49608  Biso   1.000  O
  O37      1.0000 0.55138  0.95512  0.99608  Biso   1.000  O
  O38      1.0000 0.04488  0.44862  0.99608  Biso   1.000  O
  O39      1.0000 0.54488  0.94862  0.50392  Biso   1.000  O
  O40      1.0000 0.05138  0.45512  0.50392  Biso   1.000  O
