data_image0
_cell_length_a       15.6806
_cell_length_b       15.6806
_cell_length_c       5.55277
_cell_angle_alpha    79.8016
_cell_angle_beta     79.8016
_cell_angle_gamma    20.3969

_symmetry_space_group_name_H-M    "P 1"
_symmetry_int_tables_number       1

loop_
  _symmetry_equiv_pos_as_xyz
  'x, y, z'

loop_
  _atom_site_label
  _atom_site_occupancy
  _atom_site_fract_x
  _atom_site_fract_y
  _atom_site_fract_z
  _atom_site_thermal_displace_type
  _atom_site_B_iso_or_equiv
  _atom_site_type_symbol
  K1       1.0000 0.00000  0.50000  0.00000  Biso   1.000  K
  K2       1.0000 0.50000  0.00000  0.50000  Biso   1.000  K
  Pb1      1.0000 0.83012  0.31662  0.16988  Biso   1.000  Pb
  Pb2      1.0000 0.31662  0.83012  0.68338  Biso   1.000  Pb
  Pb3      1.0000 0.16988  0.68338  0.83012  Biso   1.000  Pb
  Pb4      1.0000 0.68338  0.16988  0.31662  Biso   1.000  Pb
  Nb1      1.0000 0.24937  0.75063  0.24937  Biso   1.000  Nb
  Nb2      1.0000 0.75063  0.24937  0.75063  Biso   1.000  Nb
  Ta1      1.0000 0.39545  0.89171  0.10829  Biso   1.000  Ta
  Ta2      1.0000 0.89171  0.39545  0.60455  Biso   1.000  Ta
  Ta3      1.0000 0.10829  0.60455  0.39545  Biso   1.000  Ta
  Ta4      1.0000 0.60455  0.10829  0.89171  Biso   1.000  Ta
  O1       1.0000 0.00000  0.00000  0.50000  Biso   1.000  O
  O2       1.0000 0.50000  0.50000  0.00000  Biso   1.000  O
  O3       1.0000 0.50000  0.50000  0.50000  Biso   1.000  O
  O4       1.0000 0.00000  0.00000  0.00000  Biso   1.000  O
  O5       1.0000 0.30929  0.82095  0.17905  Biso   1.000  O
  O6       1.0000 0.82095  0.30929  0.69071  Biso   1.000  O
  O7       1.0000 0.17905  0.69071  0.30929  Biso   1.000  O
  O8       1.0000 0.69071  0.17905  0.82095  Biso   1.000  O
  O9       1.0000 0.13118  0.13118  0.36882  Biso   1.000  O
  O10      1.0000 0.63118  0.63118  0.86882  Biso   1.000  O
  O11      1.0000 0.36882  0.36882  0.13118  Biso   1.000  O
  O12      1.0000 0.86882  0.86882  0.63118  Biso   1.000  O
  O13      1.0000 0.37313  0.37313  0.62687  Biso   1.000  O
  O14      1.0000 0.86451  0.86451  0.13549  Biso   1.000  O
  O15      1.0000 0.62687  0.62687  0.37313  Biso   1.000  O
  O16      1.0000 0.13549  0.13549  0.86451  Biso   1.000  O
  O17      1.0000 0.45512  0.94862  0.05138  Biso   1.000  O
  O18      1.0000 0.94862  0.45512  0.54488  Biso   1.000  O
  O19      1.0000 0.05138  0.54488  0.45512  Biso   1.000  O
  O20      1.0000 0.54488  0.05138  0.94862  Biso   1.000  O
