data_image0
_cell_length_a       15.6806
_cell_length_b       5.55277
_cell_length_c       15.6806
_cell_angle_alpha    79.8016
_cell_angle_beta     20.3969
_cell_angle_gamma    79.8016

_symmetry_space_group_name_H-M    "P 1"
_symmetry_int_tables_number       1

loop_
  _symmetry_equiv_pos_as_xyz
  'x, y, z'

loop_
  _atom_site_label
  _atom_site_occupancy
  _atom_site_fract_x
  _atom_site_fract_y
  _atom_site_fract_z
  _atom_site_thermal_displace_type
  _atom_site_B_iso_or_equiv
  _atom_site_type_symbol
  K1       1.0000 0.75000  0.25000  0.75000  Biso   1.000  K
  K2       1.0000 0.25000  0.75000  0.25000  Biso   1.000  K
  Pb1      1.0000 0.56662  0.41988  0.58012  Biso   1.000  Pb
  Pb2      1.0000 0.08012  0.93338  0.06662  Biso   1.000  Pb
  Pb3      1.0000 0.93338  0.08012  0.91988  Biso   1.000  Pb
  Pb4      1.0000 0.41988  0.56662  0.43338  Biso   1.000  Pb
  Nb1      1.0000 0.00063  0.49937  0.99937  Biso   1.000  Nb
  Nb2      1.0000 0.49937  0.00063  0.50063  Biso   1.000  Nb
  Ta1      1.0000 0.14171  0.35829  0.14545  Biso   1.000  Ta
  Ta2      1.0000 0.64545  0.85455  0.64171  Biso   1.000  Ta
  Ta3      1.0000 0.85455  0.64545  0.85829  Biso   1.000  Ta
  Ta4      1.0000 0.35829  0.14171  0.35455  Biso   1.000  Ta
  O1       1.0000 0.24250  0.75750  0.75750  Biso   1.000  O
  O2       1.0000 0.75750  0.24250  0.24250  Biso   1.000  O
  O3       1.0000 0.74250  0.74250  0.25750  Biso   1.000  O
  O4       1.0000 0.25750  0.25750  0.74250  Biso   1.000  O
  O5       1.0000 0.07095  0.42905  0.05929  Biso   1.000  O
  O6       1.0000 0.55929  0.94071  0.57095  Biso   1.000  O
  O7       1.0000 0.94071  0.55929  0.92905  Biso   1.000  O
  O8       1.0000 0.42905  0.07095  0.44071  Biso   1.000  O
  O9       1.0000 0.38128  0.61872  0.88108  Biso   1.000  O
  O10      1.0000 0.88108  0.11892  0.38128  Biso   1.000  O
  O11      1.0000 0.61872  0.38128  0.11892  Biso   1.000  O
  O12      1.0000 0.11892  0.88108  0.61872  Biso   1.000  O
  O13      1.0000 0.62324  0.87697  0.12303  Biso   1.000  O
  O14      1.0000 0.11440  0.38539  0.61461  Biso   1.000  O
  O15      1.0000 0.87697  0.62324  0.37676  Biso   1.000  O
  O16      1.0000 0.38539  0.11440  0.88560  Biso   1.000  O
  O17      1.0000 0.19862  0.30138  0.20512  Biso   1.000  O
  O18      1.0000 0.70512  0.79488  0.69862  Biso   1.000  O
  O19      1.0000 0.79488  0.70512  0.80138  Biso   1.000  O
  O20      1.0000 0.30138  0.19862  0.29488  Biso   1.000  O
