data_image0
_cell_length_a       7.8528
_cell_length_b       30.3622
_cell_length_c       7.8528
_cell_angle_alpha    90
_cell_angle_beta     90
_cell_angle_gamma    90

_symmetry_space_group_name_H-M    "P 1"
_symmetry_int_tables_number       1

loop_
  _symmetry_equiv_pos_as_xyz
  'x, y, z'

loop_
  _atom_site_label
  _atom_site_occupancy
  _atom_site_fract_x
  _atom_site_fract_y
  _atom_site_fract_z
  _atom_site_thermal_displace_type
  _atom_site_B_iso_or_equiv
  _atom_site_type_symbol
  K1       1.0000 0.00000  0.00000  0.00000  Biso   1.000  K
  K2       1.0000 0.00000  0.50000  0.00000  Biso   1.000  K
  K3       1.0000 0.50000  0.00000  0.00000  Biso   1.000  K
  K4       1.0000 0.50000  0.50000  0.00000  Biso   1.000  K
  K5       1.0000 0.00000  0.00000  0.50000  Biso   1.000  K
  K6       1.0000 0.00000  0.50000  0.50000  Biso   1.000  K
  K7       1.0000 0.50000  0.00000  0.50000  Biso   1.000  K
  K8       1.0000 0.50000  0.50000  0.50000  Biso   1.000  K
  Pb1      1.0000 0.99325  0.82163  0.00000  Biso   1.000  Pb
  Pb2      1.0000 0.00675  0.32511  0.00000  Biso   1.000  Pb
  Pb3      1.0000 0.50675  0.82337  0.00000  Biso   1.000  Pb
  Pb4      1.0000 0.49325  0.32337  0.00000  Biso   1.000  Pb
  Pb5      1.0000 0.00675  0.82337  0.50000  Biso   1.000  Pb
  Pb6      1.0000 0.99325  0.32337  0.50000  Biso   1.000  Pb
  Pb7      1.0000 0.49325  0.82511  0.50000  Biso   1.000  Pb
  Pb8      1.0000 0.50675  0.32163  0.50000  Biso   1.000  Pb
  Pb9      1.0000 0.50675  0.67663  0.00000  Biso   1.000  Pb
  Pb10     1.0000 0.49325  0.17663  0.00000  Biso   1.000  Pb
  Pb11     1.0000 0.99325  0.67489  0.00000  Biso   1.000  Pb
  Pb12     1.0000 0.00675  0.17837  0.00000  Biso   1.000  Pb
  Pb13     1.0000 0.49325  0.67837  0.50000  Biso   1.000  Pb
  Pb14     1.0000 0.50675  0.17489  0.50000  Biso   1.000  Pb
  Pb15     1.0000 0.00675  0.67663  0.50000  Biso   1.000  Pb
  Pb16     1.0000 0.99325  0.17663  0.50000  Biso   1.000  Pb
  Nb1      1.0000 0.75000  0.75000  0.75063  Biso   1.000  Nb
  Nb2      1.0000 0.75000  0.25000  0.74937  Biso   1.000  Nb
  Nb3      1.0000 0.25000  0.75000  0.74937  Biso   1.000  Nb
  Nb4      1.0000 0.25000  0.25000  0.75063  Biso   1.000  Nb
  Nb5      1.0000 0.75000  0.75000  0.24937  Biso   1.000  Nb
  Nb6      1.0000 0.75000  0.25000  0.25063  Biso   1.000  Nb
  Nb7      1.0000 0.25000  0.75000  0.25063  Biso   1.000  Nb
  Nb8      1.0000 0.25000  0.25000  0.24937  Biso   1.000  Nb
  Ta1      1.0000 0.75017  0.89358  0.74829  Biso   1.000  Ta
  Ta2      1.0000 0.74983  0.39358  0.75171  Biso   1.000  Ta
  Ta3      1.0000 0.24983  0.89358  0.75204  Biso   1.000  Ta
  Ta4      1.0000 0.25017  0.39358  0.74796  Biso   1.000  Ta
  Ta5      1.0000 0.75017  0.89358  0.25171  Biso   1.000  Ta
  Ta6      1.0000 0.74983  0.39358  0.24829  Biso   1.000  Ta
  Ta7      1.0000 0.24983  0.89358  0.24796  Biso   1.000  Ta
  Ta8      1.0000 0.25017  0.39358  0.25204  Biso   1.000  Ta
  Ta9      1.0000 0.74983  0.60642  0.74796  Biso   1.000  Ta
  Ta10     1.0000 0.75017  0.10642  0.75204  Biso   1.000  Ta
  Ta11     1.0000 0.25017  0.60642  0.75171  Biso   1.000  Ta
  Ta12     1.0000 0.24983  0.10642  0.74829  Biso   1.000  Ta
  Ta13     1.0000 0.74983  0.60642  0.25204  Biso   1.000  Ta
  Ta14     1.0000 0.75017  0.10642  0.24796  Biso   1.000  Ta
  Ta15     1.0000 0.25017  0.60642  0.24829  Biso   1.000  Ta
  Ta16     1.0000 0.24983  0.10642  0.25171  Biso   1.000  Ta
  O1       1.0000 0.00000  0.75646  0.75000  Biso   1.000  O
  O2       1.0000 0.00000  0.24354  0.75000  Biso   1.000  O
  O3       1.0000 0.50000  0.74354  0.75000  Biso   1.000  O
  O4       1.0000 0.50000  0.25646  0.75000  Biso   1.000  O
  O5       1.0000 0.00000  0.75646  0.25000  Biso   1.000  O
  O6       1.0000 0.00000  0.24354  0.25000  Biso   1.000  O
  O7       1.0000 0.50000  0.74354  0.25000  Biso   1.000  O
  O8       1.0000 0.50000  0.25646  0.25000  Biso   1.000  O
  O9       1.0000 0.75000  0.74354  0.50000  Biso   1.000  O
  O10      1.0000 0.75000  0.25646  0.50000  Biso   1.000  O
  O11      1.0000 0.25000  0.74354  0.50000  Biso   1.000  O
  O12      1.0000 0.25000  0.25646  0.50000  Biso   1.000  O
  O13      1.0000 0.75000  0.75646  0.00000  Biso   1.000  O
  O14      1.0000 0.75000  0.24354  0.00000  Biso   1.000  O
  O15      1.0000 0.25000  0.75646  0.00000  Biso   1.000  O
  O16      1.0000 0.25000  0.24354  0.00000  Biso   1.000  O
  O17      1.0000 0.74496  0.81512  0.75079  Biso   1.000  O
  O18      1.0000 0.75504  0.31512  0.74921  Biso   1.000  O
  O19      1.0000 0.25504  0.81512  0.73913  Biso   1.000  O
  O20      1.0000 0.24496  0.31512  0.76087  Biso   1.000  O
  O21      1.0000 0.74496  0.81512  0.24921  Biso   1.000  O
  O22      1.0000 0.75504  0.31512  0.25079  Biso   1.000  O
  O23      1.0000 0.25504  0.81512  0.26087  Biso   1.000  O
  O24      1.0000 0.24496  0.31512  0.23913  Biso   1.000  O
  O25      1.0000 0.75504  0.68488  0.76087  Biso   1.000  O
  O26      1.0000 0.74496  0.18488  0.73913  Biso   1.000  O
  O27      1.0000 0.24496  0.68488  0.74921  Biso   1.000  O
  O28      1.0000 0.25504  0.18488  0.75079  Biso   1.000  O
  O29      1.0000 0.75504  0.68488  0.23913  Biso   1.000  O
  O30      1.0000 0.74496  0.18488  0.26087  Biso   1.000  O
  O31      1.0000 0.24496  0.68488  0.25079  Biso   1.000  O
  O32      1.0000 0.25504  0.18488  0.24921  Biso   1.000  O
  O33      1.0000 0.00000  0.87840  0.75062  Biso   1.000  O
  O34      1.0000 0.00000  0.38396  0.74938  Biso   1.000  O
  O35      1.0000 0.50000  0.88396  0.75062  Biso   1.000  O
  O36      1.0000 0.50000  0.37840  0.74938  Biso   1.000  O
  O37      1.0000 0.00000  0.87840  0.24938  Biso   1.000  O
  O38      1.0000 0.00000  0.38396  0.25062  Biso   1.000  O
  O39      1.0000 0.50000  0.88396  0.24938  Biso   1.000  O
  O40      1.0000 0.50000  0.37840  0.25062  Biso   1.000  O
  O41      1.0000 0.50000  0.62160  0.74938  Biso   1.000  O
  O42      1.0000 0.50000  0.11604  0.75062  Biso   1.000  O
  O43      1.0000 0.00000  0.61604  0.74938  Biso   1.000  O
  O44      1.0000 0.00000  0.12160  0.75062  Biso   1.000  O
  O45      1.0000 0.50000  0.62160  0.25062  Biso   1.000  O
  O46      1.0000 0.50000  0.11604  0.24938  Biso   1.000  O
  O47      1.0000 0.00000  0.61604  0.25062  Biso   1.000  O
  O48      1.0000 0.00000  0.12160  0.24938  Biso   1.000  O
  O49      1.0000 0.74938  0.62592  0.50000  Biso   1.000  O
  O50      1.0000 0.75062  0.11172  0.50000  Biso   1.000  O
  O51      1.0000 0.25062  0.61729  0.50000  Biso   1.000  O
  O52      1.0000 0.24938  0.12035  0.50000  Biso   1.000  O
  O53      1.0000 0.74938  0.61172  0.00000  Biso   1.000  O
  O54      1.0000 0.75062  0.12592  0.00000  Biso   1.000  O
  O55      1.0000 0.25062  0.62035  0.00000  Biso   1.000  O
  O56      1.0000 0.24938  0.11729  0.00000  Biso   1.000  O
  O57      1.0000 0.75062  0.87965  0.50000  Biso   1.000  O
  O58      1.0000 0.74938  0.38271  0.50000  Biso   1.000  O
  O59      1.0000 0.24938  0.88828  0.50000  Biso   1.000  O
  O60      1.0000 0.25062  0.37408  0.50000  Biso   1.000  O
  O61      1.0000 0.75062  0.88271  0.00000  Biso   1.000  O
  O62      1.0000 0.74938  0.37965  0.00000  Biso   1.000  O
  O63      1.0000 0.24938  0.87408  0.00000  Biso   1.000  O
  O64      1.0000 0.25062  0.38828  0.00000  Biso   1.000  O
  O65      1.0000 0.75105  0.95187  0.74779  Biso   1.000  O
  O66      1.0000 0.74895  0.45187  0.75221  Biso   1.000  O
  O67      1.0000 0.24895  0.95187  0.75430  Biso   1.000  O
  O68      1.0000 0.25105  0.45187  0.74570  Biso   1.000  O
  O69      1.0000 0.75105  0.95187  0.25221  Biso   1.000  O
  O70      1.0000 0.74895  0.45187  0.24779  Biso   1.000  O
  O71      1.0000 0.24895  0.95187  0.24570  Biso   1.000  O
  O72      1.0000 0.25105  0.45187  0.25430  Biso   1.000  O
  O73      1.0000 0.74895  0.54813  0.74570  Biso   1.000  O
  O74      1.0000 0.75105  0.04813  0.75430  Biso   1.000  O
  O75      1.0000 0.25105  0.54813  0.75221  Biso   1.000  O
  O76      1.0000 0.24895  0.04813  0.74779  Biso   1.000  O
  O77      1.0000 0.74895  0.54813  0.25430  Biso   1.000  O
  O78      1.0000 0.75105  0.04813  0.24570  Biso   1.000  O
  O79      1.0000 0.25105  0.54813  0.24779  Biso   1.000  O
  O80      1.0000 0.24895  0.04813  0.25221  Biso   1.000  O
