data_image0
_cell_length_a       7.8528
_cell_length_b       30.3622
_cell_length_c       7.8528
_cell_angle_alpha    90
_cell_angle_beta     90
_cell_angle_gamma    90

_symmetry_space_group_name_H-M    "P 1"
_symmetry_int_tables_number       1

loop_
  _symmetry_equiv_pos_as_xyz
  'x, y, z'

loop_
  _atom_site_label
  _atom_site_occupancy
  _atom_site_fract_x
  _atom_site_fract_y
  _atom_site_fract_z
  _atom_site_thermal_displace_type
  _atom_site_B_iso_or_equiv
  _atom_site_type_symbol
  K1       1.0000 0.00000  0.26772  0.75000  Biso   1.000  K
  K2       1.0000 0.00000  0.73228  0.75000  Biso   1.000  K
  K3       1.0000 0.00000  0.25000  0.25000  Biso   1.000  K
  K4       1.0000 0.00000  0.75000  0.25000  Biso   1.000  K
  K5       1.0000 0.50000  0.25000  0.75000  Biso   1.000  K
  K6       1.0000 0.50000  0.75000  0.75000  Biso   1.000  K
  K7       1.0000 0.50000  0.23228  0.25000  Biso   1.000  K
  K8       1.0000 0.50000  0.76772  0.25000  Biso   1.000  K
  Pb1      1.0000 0.00000  0.07440  0.75675  Biso   1.000  Pb
  Pb2      1.0000 0.00000  0.57234  0.74325  Biso   1.000  Pb
  Pb3      1.0000 0.00000  0.07337  0.24325  Biso   1.000  Pb
  Pb4      1.0000 0.00000  0.57337  0.25675  Biso   1.000  Pb
  Pb5      1.0000 0.50000  0.07337  0.74325  Biso   1.000  Pb
  Pb6      1.0000 0.50000  0.57337  0.75675  Biso   1.000  Pb
  Pb7      1.0000 0.50000  0.07234  0.25675  Biso   1.000  Pb
  Pb8      1.0000 0.50000  0.57440  0.24325  Biso   1.000  Pb
  Pb9      1.0000 0.00000  0.92663  0.24325  Biso   1.000  Pb
  Pb10     1.0000 0.00000  0.42663  0.25675  Biso   1.000  Pb
  Pb11     1.0000 0.00000  0.92560  0.75675  Biso   1.000  Pb
  Pb12     1.0000 0.00000  0.42766  0.74325  Biso   1.000  Pb
  Pb13     1.0000 0.50000  0.92766  0.25675  Biso   1.000  Pb
  Pb14     1.0000 0.50000  0.42560  0.24325  Biso   1.000  Pb
  Pb15     1.0000 0.50000  0.92663  0.74325  Biso   1.000  Pb
  Pb16     1.0000 0.50000  0.42663  0.75675  Biso   1.000  Pb
  Nb1      1.0000 0.75090  0.00000  0.99973  Biso   1.000  Nb
  Nb2      1.0000 0.74910  0.50000  0.00027  Biso   1.000  Nb
  Nb3      1.0000 0.74963  0.00000  0.50027  Biso   1.000  Nb
  Nb4      1.0000 0.75037  0.50000  0.49973  Biso   1.000  Nb
  Nb5      1.0000 0.24910  0.00000  0.99973  Biso   1.000  Nb
  Nb6      1.0000 0.25090  0.50000  0.00027  Biso   1.000  Nb
  Nb7      1.0000 0.25037  0.00000  0.50027  Biso   1.000  Nb
  Nb8      1.0000 0.24963  0.50000  0.49973  Biso   1.000  Nb
  Ta1      1.0000 0.74734  0.14358  0.00079  Biso   1.000  Ta
  Ta2      1.0000 0.75266  0.64358  0.99921  Biso   1.000  Ta
  Ta3      1.0000 0.75109  0.14358  0.49921  Biso   1.000  Ta
  Ta4      1.0000 0.74891  0.64358  0.50079  Biso   1.000  Ta
  Ta5      1.0000 0.25266  0.14358  0.00079  Biso   1.000  Ta
  Ta6      1.0000 0.24734  0.64358  0.99921  Biso   1.000  Ta
  Ta7      1.0000 0.24891  0.14358  0.49921  Biso   1.000  Ta
  Ta8      1.0000 0.25109  0.64358  0.50079  Biso   1.000  Ta
  Ta9      1.0000 0.74734  0.85642  0.00079  Biso   1.000  Ta
  Ta10     1.0000 0.75266  0.35642  0.99921  Biso   1.000  Ta
  Ta11     1.0000 0.75109  0.85642  0.49921  Biso   1.000  Ta
  Ta12     1.0000 0.74891  0.35642  0.50079  Biso   1.000  Ta
  Ta13     1.0000 0.25266  0.85642  0.00079  Biso   1.000  Ta
  Ta14     1.0000 0.24734  0.35642  0.99921  Biso   1.000  Ta
  Ta15     1.0000 0.24891  0.85642  0.49921  Biso   1.000  Ta
  Ta16     1.0000 0.25109  0.35642  0.50079  Biso   1.000  Ta
  O1       1.0000 0.74989  0.00000  0.75000  Biso   1.000  O
  O2       1.0000 0.75011  0.50000  0.75000  Biso   1.000  O
  O3       1.0000 0.74989  0.00000  0.25000  Biso   1.000  O
  O4       1.0000 0.75011  0.50000  0.25000  Biso   1.000  O
  O5       1.0000 0.25011  0.00000  0.75000  Biso   1.000  O
  O6       1.0000 0.24989  0.50000  0.75000  Biso   1.000  O
  O7       1.0000 0.25011  0.00000  0.25000  Biso   1.000  O
  O8       1.0000 0.24989  0.50000  0.25000  Biso   1.000  O
  O9       1.0000 0.50000  0.00000  0.00011  Biso   1.000  O
  O10      1.0000 0.50000  0.50000  0.99989  Biso   1.000  O
  O11      1.0000 0.50000  0.00000  0.49989  Biso   1.000  O
  O12      1.0000 0.50000  0.50000  0.50011  Biso   1.000  O
  O13      1.0000 0.00000  0.00000  0.00011  Biso   1.000  O
  O14      1.0000 0.00000  0.50000  0.99989  Biso   1.000  O
  O15      1.0000 0.00000  0.00000  0.49989  Biso   1.000  O
  O16      1.0000 0.00000  0.50000  0.50011  Biso   1.000  O
  O17      1.0000 0.75673  0.06512  0.99910  Biso   1.000  O
  O18      1.0000 0.74327  0.56512  0.00090  Biso   1.000  O
  O19      1.0000 0.74507  0.06512  0.50090  Biso   1.000  O
  O20      1.0000 0.75493  0.56512  0.49910  Biso   1.000  O
  O21      1.0000 0.24327  0.06512  0.99910  Biso   1.000  O
  O22      1.0000 0.25673  0.56512  0.00090  Biso   1.000  O
  O23      1.0000 0.25493  0.06512  0.50090  Biso   1.000  O
  O24      1.0000 0.24507  0.56512  0.49910  Biso   1.000  O
  O25      1.0000 0.75673  0.93488  0.99910  Biso   1.000  O
  O26      1.0000 0.74327  0.43488  0.00090  Biso   1.000  O
  O27      1.0000 0.74507  0.93488  0.50090  Biso   1.000  O
  O28      1.0000 0.75493  0.43488  0.49910  Biso   1.000  O
  O29      1.0000 0.24327  0.93488  0.99910  Biso   1.000  O
  O30      1.0000 0.25673  0.43488  0.00090  Biso   1.000  O
  O31      1.0000 0.25493  0.93488  0.50090  Biso   1.000  O
  O32      1.0000 0.24507  0.43488  0.49910  Biso   1.000  O
  O33      1.0000 0.74980  0.13306  0.75000  Biso   1.000  O
  O34      1.0000 0.75020  0.62930  0.75000  Biso   1.000  O
  O35      1.0000 0.74980  0.12930  0.25000  Biso   1.000  O
  O36      1.0000 0.75020  0.63306  0.25000  Biso   1.000  O
  O37      1.0000 0.25020  0.13306  0.75000  Biso   1.000  O
  O38      1.0000 0.24980  0.62930  0.75000  Biso   1.000  O
  O39      1.0000 0.25020  0.12930  0.25000  Biso   1.000  O
  O40      1.0000 0.24980  0.63306  0.25000  Biso   1.000  O
  O41      1.0000 0.74980  0.87070  0.25000  Biso   1.000  O
  O42      1.0000 0.75020  0.36694  0.25000  Biso   1.000  O
  O43      1.0000 0.74980  0.86694  0.75000  Biso   1.000  O
  O44      1.0000 0.75020  0.37070  0.75000  Biso   1.000  O
  O45      1.0000 0.25020  0.87070  0.25000  Biso   1.000  O
  O46      1.0000 0.24980  0.36694  0.25000  Biso   1.000  O
  O47      1.0000 0.25020  0.86694  0.75000  Biso   1.000  O
  O48      1.0000 0.24980  0.37070  0.75000  Biso   1.000  O
  O49      1.0000 0.50000  0.87501  0.00020  Biso   1.000  O
  O50      1.0000 0.50000  0.36263  0.99980  Biso   1.000  O
  O51      1.0000 0.50000  0.86638  0.49980  Biso   1.000  O
  O52      1.0000 0.50000  0.37126  0.50020  Biso   1.000  O
  O53      1.0000 0.00000  0.86263  0.00020  Biso   1.000  O
  O54      1.0000 0.00000  0.37501  0.99980  Biso   1.000  O
  O55      1.0000 0.00000  0.87126  0.49980  Biso   1.000  O
  O56      1.0000 0.00000  0.36638  0.50020  Biso   1.000  O
  O57      1.0000 0.50000  0.12499  0.00020  Biso   1.000  O
  O58      1.0000 0.50000  0.63737  0.99980  Biso   1.000  O
  O59      1.0000 0.50000  0.13362  0.49980  Biso   1.000  O
  O60      1.0000 0.50000  0.62874  0.50020  Biso   1.000  O
  O61      1.0000 0.00000  0.13737  0.00020  Biso   1.000  O
  O62      1.0000 0.00000  0.62499  0.99980  Biso   1.000  O
  O63      1.0000 0.00000  0.12874  0.49980  Biso   1.000  O
  O64      1.0000 0.00000  0.63362  0.50020  Biso   1.000  O
  O65      1.0000 0.74333  0.20187  0.00342  Biso   1.000  O
  O66      1.0000 0.75667  0.70187  0.99658  Biso   1.000  O
  O67      1.0000 0.74984  0.20187  0.49658  Biso   1.000  O
  O68      1.0000 0.75016  0.70187  0.50342  Biso   1.000  O
  O69      1.0000 0.25667  0.20187  0.00342  Biso   1.000  O
  O70      1.0000 0.24333  0.70187  0.99658  Biso   1.000  O
  O71      1.0000 0.25016  0.20187  0.49658  Biso   1.000  O
  O72      1.0000 0.24984  0.70187  0.50342  Biso   1.000  O
  O73      1.0000 0.74333  0.79813  0.00342  Biso   1.000  O
  O74      1.0000 0.75667  0.29813  0.99658  Biso   1.000  O
  O75      1.0000 0.74984  0.79813  0.49658  Biso   1.000  O
  O76      1.0000 0.75016  0.29813  0.50342  Biso   1.000  O
  O77      1.0000 0.25667  0.79813  0.00342  Biso   1.000  O
  O78      1.0000 0.24333  0.29813  0.99658  Biso   1.000  O
  O79      1.0000 0.25016  0.79813  0.49658  Biso   1.000  O
  O80      1.0000 0.24984  0.29813  0.50342  Biso   1.000  O
