data_image0
_cell_length_a       15.6806
_cell_length_b       5.55277
_cell_length_c       15.6806
_cell_angle_alpha    79.8016
_cell_angle_beta     20.3969
_cell_angle_gamma    79.8016

_symmetry_space_group_name_H-M    "P 1"
_symmetry_int_tables_number       1

loop_
  _symmetry_equiv_pos_as_xyz
  'x, y, z'

loop_
  _atom_site_label
  _atom_site_occupancy
  _atom_site_fract_x
  _atom_site_fract_y
  _atom_site_fract_z
  _atom_site_thermal_displace_type
  _atom_site_B_iso_or_equiv
  _atom_site_type_symbol
  K1       1.0000 0.25000  0.25000  0.25000  Biso   1.000  K
  K2       1.0000 0.75000  0.75000  0.75000  Biso   1.000  K
  Pb1      1.0000 0.07753  0.41729  0.06921  Biso   1.000  Pb
  Pb2      1.0000 0.56403  0.93079  0.58271  Biso   1.000  Pb
  Pb3      1.0000 0.41729  0.07753  0.43597  Biso   1.000  Pb
  Pb4      1.0000 0.93079  0.56403  0.92247  Biso   1.000  Pb
  Nb1      1.0000 0.99811  0.99811  0.00189  Biso   1.000  Nb
  Nb2      1.0000 0.49685  0.49685  0.50315  Biso   1.000  Nb
  Ta1      1.0000 0.14354  0.85638  0.14362  Biso   1.000  Ta
  Ta2      1.0000 0.64729  0.36013  0.63987  Biso   1.000  Ta
  Ta3      1.0000 0.85638  0.14354  0.85646  Biso   1.000  Ta
  Ta4      1.0000 0.36013  0.64729  0.35271  Biso   1.000  Ta
  O1       1.0000 0.75628  0.25628  0.24372  Biso   1.000  O
  O2       1.0000 0.25628  0.75628  0.74372  Biso   1.000  O
  O3       1.0000 0.75297  0.75297  0.24703  Biso   1.000  O
  O4       1.0000 0.25297  0.25297  0.74703  Biso   1.000  O
  O5       1.0000 0.07441  0.94417  0.05583  Biso   1.000  O
  O6       1.0000 0.56275  0.43251  0.56749  Biso   1.000  O
  O7       1.0000 0.94417  0.07441  0.92559  Biso   1.000  O
  O8       1.0000 0.43251  0.56275  0.43725  Biso   1.000  O
  O9       1.0000 0.88306  0.12070  0.37930  Biso   1.000  O
  O10      1.0000 0.38306  0.62070  0.87930  Biso   1.000  O
  O11      1.0000 0.12070  0.88306  0.61694  Biso   1.000  O
  O12      1.0000 0.62070  0.38306  0.11694  Biso   1.000  O
  O13      1.0000 0.62459  0.87833  0.12167  Biso   1.000  O
  O14      1.0000 0.11597  0.38695  0.61305  Biso   1.000  O
  O15      1.0000 0.87833  0.62459  0.37541  Biso   1.000  O
  O16      1.0000 0.38695  0.11597  0.88403  Biso   1.000  O
  O17      1.0000 0.19972  0.79598  0.20402  Biso   1.000  O
  O18      1.0000 0.70623  0.30249  0.69751  Biso   1.000  O
  O19      1.0000 0.79598  0.19972  0.80028  Biso   1.000  O
  O20      1.0000 0.30249  0.70623  0.29377  Biso   1.000  O
