data_image0
_cell_length_a       15.6806
_cell_length_b       15.6806
_cell_length_c       7.8528
_cell_angle_alpha    90
_cell_angle_beta     90
_cell_angle_gamma    150.998

_symmetry_space_group_name_H-M    "P 1"
_symmetry_int_tables_number       1

loop_
  _symmetry_equiv_pos_as_xyz
  'x, y, z'

loop_
  _atom_site_label
  _atom_site_occupancy
  _atom_site_fract_x
  _atom_site_fract_y
  _atom_site_fract_z
  _atom_site_thermal_displace_type
  _atom_site_B_iso_or_equiv
  _atom_site_type_symbol
  K1       1.0000 0.00000  0.00000  0.00000  Biso   1.000  K
  K2       1.0000 0.50000  0.50000  0.00000  Biso   1.000  K
  K3       1.0000 0.00000  0.00000  0.50000  Biso   1.000  K
  K4       1.0000 0.50000  0.50000  0.50000  Biso   1.000  K
  Pb1      1.0000 0.17075  0.81575  0.00000  Biso   1.000  Pb
  Pb2      1.0000 0.68251  0.33099  0.00000  Biso   1.000  Pb
  Pb3      1.0000 0.18425  0.82925  0.50000  Biso   1.000  Pb
  Pb4      1.0000 0.66901  0.31749  0.50000  Biso   1.000  Pb
  Pb5      1.0000 0.82925  0.18425  0.00000  Biso   1.000  Pb
  Pb6      1.0000 0.31749  0.66901  0.00000  Biso   1.000  Pb
  Pb7      1.0000 0.81575  0.17075  0.50000  Biso   1.000  Pb
  Pb8      1.0000 0.33099  0.68251  0.50000  Biso   1.000  Pb
  Nb1      1.0000 0.00000  0.50000  0.75063  Biso   1.000  Nb
  Nb2      1.0000 0.50000  0.00000  0.74937  Biso   1.000  Nb
  Nb3      1.0000 0.00000  0.50000  0.24937  Biso   1.000  Nb
  Nb4      1.0000 0.50000  0.00000  0.25063  Biso   1.000  Nb
  Ta1      1.0000 0.85659  0.64375  0.74813  Biso   1.000  Ta
  Ta2      1.0000 0.35625  0.14341  0.75187  Biso   1.000  Ta
  Ta3      1.0000 0.85659  0.64375  0.25187  Biso   1.000  Ta
  Ta4      1.0000 0.35625  0.14341  0.24813  Biso   1.000  Ta
  Ta5      1.0000 0.14341  0.35625  0.74813  Biso   1.000  Ta
  Ta6      1.0000 0.64375  0.85659  0.75187  Biso   1.000  Ta
  Ta7      1.0000 0.14341  0.35625  0.25187  Biso   1.000  Ta
  Ta8      1.0000 0.64375  0.85659  0.24813  Biso   1.000  Ta
  O1       1.0000 0.24354  0.75646  0.75000  Biso   1.000  O
  O2       1.0000 0.75646  0.24354  0.75000  Biso   1.000  O
  O3       1.0000 0.24354  0.75646  0.25000  Biso   1.000  O
  O4       1.0000 0.75646  0.24354  0.25000  Biso   1.000  O
  O5       1.0000 0.00000  0.50000  0.50000  Biso   1.000  O
  O6       1.0000 0.50000  0.00000  0.50000  Biso   1.000  O
  O7       1.0000 0.00000  0.50000  0.00000  Biso   1.000  O
  O8       1.0000 0.50000  0.00000  0.00000  Biso   1.000  O
  O9       1.0000 0.92984  0.56008  0.75583  Biso   1.000  O
  O10      1.0000 0.43992  0.07016  0.74417  Biso   1.000  O
  O11      1.0000 0.92984  0.56008  0.24417  Biso   1.000  O
  O12      1.0000 0.43992  0.07016  0.25583  Biso   1.000  O
  O13      1.0000 0.07016  0.43992  0.75583  Biso   1.000  O
  O14      1.0000 0.56008  0.92984  0.74417  Biso   1.000  O
  O15      1.0000 0.07016  0.43992  0.24417  Biso   1.000  O
  O16      1.0000 0.56008  0.92984  0.25583  Biso   1.000  O
  O17      1.0000 0.12160  0.87840  0.75000  Biso   1.000  O
  O18      1.0000 0.61604  0.38396  0.75000  Biso   1.000  O
  O19      1.0000 0.12160  0.87840  0.25000  Biso   1.000  O
  O20      1.0000 0.61604  0.38396  0.25000  Biso   1.000  O
  O21      1.0000 0.87840  0.12160  0.75000  Biso   1.000  O
  O22      1.0000 0.38396  0.61604  0.75000  Biso   1.000  O
  O23      1.0000 0.87840  0.12160  0.25000  Biso   1.000  O
  O24      1.0000 0.38396  0.61604  0.25000  Biso   1.000  O
  O25      1.0000 0.12625  0.37252  0.50000  Biso   1.000  O
  O26      1.0000 0.63611  0.86512  0.50000  Biso   1.000  O
  O27      1.0000 0.13488  0.36389  0.00000  Biso   1.000  O
  O28      1.0000 0.62748  0.87375  0.00000  Biso   1.000  O
  O29      1.0000 0.87375  0.62748  0.50000  Biso   1.000  O
  O30      1.0000 0.36389  0.13488  0.50000  Biso   1.000  O
  O31      1.0000 0.86512  0.63611  0.00000  Biso   1.000  O
  O32      1.0000 0.37252  0.12625  0.00000  Biso   1.000  O
  O33      1.0000 0.79918  0.70292  0.74675  Biso   1.000  O
  O34      1.0000 0.29708  0.20082  0.75325  Biso   1.000  O
  O35      1.0000 0.79918  0.70292  0.25325  Biso   1.000  O
  O36      1.0000 0.29708  0.20082  0.24675  Biso   1.000  O
  O37      1.0000 0.20082  0.29708  0.74675  Biso   1.000  O
  O38      1.0000 0.70292  0.79918  0.75325  Biso   1.000  O
  O39      1.0000 0.20082  0.29708  0.25325  Biso   1.000  O
  O40      1.0000 0.70292  0.79918  0.24675  Biso   1.000  O
