data_image0
_cell_length_a       15.6806
_cell_length_b       15.6806
_cell_length_c       15.6806
_cell_angle_alpha    29.0021
_cell_angle_beta     159.603
_cell_angle_gamma    159.603

_symmetry_space_group_name_H-M    "P 1"
_symmetry_int_tables_number       1

loop_
  _symmetry_equiv_pos_as_xyz
  'x, y, z'

loop_
  _atom_site_label
  _atom_site_occupancy
  _atom_site_fract_x
  _atom_site_fract_y
  _atom_site_fract_z
  _atom_site_thermal_displace_type
  _atom_site_B_iso_or_equiv
  _atom_site_type_symbol
  K1       1.0000 0.75000  0.75000  0.00000  Biso   1.000  K
  K2       1.0000 0.75000  0.25000  0.50000  Biso   1.000  K
  Pb1      1.0000 0.75519  0.57856  0.82337  Biso   1.000  Pb
  Pb2      1.0000 0.75519  0.07856  0.32337  Biso   1.000  Pb
  Pb3      1.0000 0.75519  0.93182  0.17663  Biso   1.000  Pb
  Pb4      1.0000 0.75519  0.43182  0.67663  Biso   1.000  Pb
  Nb1      1.0000 0.25504  0.00504  0.75000  Biso   1.000  Nb
  Nb2      1.0000 0.25504  0.50504  0.25000  Biso   1.000  Nb
  Ta1      1.0000 0.24633  0.13991  0.89358  Biso   1.000  Ta
  Ta2      1.0000 0.24633  0.63991  0.39358  Biso   1.000  Ta
  Ta3      1.0000 0.24633  0.85275  0.60642  Biso   1.000  Ta
  Ta4      1.0000 0.24633  0.35275  0.10642  Biso   1.000  Ta
  O1       1.0000 0.25245  0.74825  0.00419  Biso   1.000  O
  O2       1.0000 0.22245  0.23326  0.48919  Biso   1.000  O
  O3       1.0000 0.74406  0.24825  0.99581  Biso   1.000  O
  O4       1.0000 0.74406  0.73326  0.51081  Biso   1.000  O
  O5       1.0000 0.24308  0.05820  0.81512  Biso   1.000  O
  O6       1.0000 0.24308  0.55820  0.31512  Biso   1.000  O
  O7       1.0000 0.24308  0.92796  0.68488  Biso   1.000  O
  O8       1.0000 0.24308  0.42796  0.18488  Biso   1.000  O
  O9       1.0000 0.24603  0.87773  0.13065  Biso   1.000  O
  O10      1.0000 0.24644  0.37794  0.63086  Biso   1.000  O
  O11      1.0000 0.24644  0.11558  0.36850  Biso   1.000  O
  O12      1.0000 0.24603  0.61537  0.86829  Biso   1.000  O
  O13      1.0000 0.74708  0.11537  0.86935  Biso   1.000  O
  O14      1.0000 0.74708  0.61558  0.36914  Biso   1.000  O
  O15      1.0000 0.74708  0.37773  0.13171  Biso   1.000  O
  O16      1.0000 0.74708  0.87794  0.63150  Biso   1.000  O
  O17      1.0000 0.24778  0.19965  0.95187  Biso   1.000  O
  O18      1.0000 0.24778  0.69965  0.45187  Biso   1.000  O
  O19      1.0000 0.24778  0.79591  0.54813  Biso   1.000  O
  O20      1.0000 0.24778  0.29591  0.04813  Biso   1.000  O
