data_image0
_cell_length_a       16.1647
_cell_length_b       7.8528
_cell_length_c       16.1647
_cell_angle_alpha    75.9423
_cell_angle_beta     28.1154
_cell_angle_gamma    75.9423

_symmetry_space_group_name_H-M    "P 1"
_symmetry_int_tables_number       1

loop_
  _symmetry_equiv_pos_as_xyz
  'x, y, z'

loop_
  _atom_site_label
  _atom_site_occupancy
  _atom_site_fract_x
  _atom_site_fract_y
  _atom_site_fract_z
  _atom_site_thermal_displace_type
  _atom_site_B_iso_or_equiv
  _atom_site_type_symbol
  K1       1.0000 1.00000  1.00000  0.00000  Biso   1.000  K
  K2       1.0000 0.50000  0.50000  0.50000  Biso   1.000  K
  K3       1.0000 0.00000  0.50000  0.00000  Biso   1.000  K
  K4       1.0000 0.50000  1.00000  0.50000  Biso   1.000  K
  Pb1      1.0000 0.81904  0.17578  0.82422  Biso   1.000  Pb
  Pb2      1.0000 0.32252  0.67230  0.32770  Biso   1.000  Pb
  Pb3      1.0000 0.82078  0.67404  0.82596  Biso   1.000  Pb
  Pb4      1.0000 0.32078  0.17404  0.32596  Biso   1.000  Pb
  Pb5      1.0000 0.67404  0.82078  0.67922  Biso   1.000  Pb
  Pb6      1.0000 0.17404  0.32078  0.17922  Biso   1.000  Pb
  Pb7      1.0000 0.67230  0.32252  0.67748  Biso   1.000  Pb
  Pb8      1.0000 0.17578  0.81904  0.18096  Biso   1.000  Pb
  Nb1      1.0000 0.49748  0.99748  0.00252  Biso   1.000  Nb
  Nb2      1.0000 0.99748  0.49748  0.50252  Biso   1.000  Nb
  Nb3      1.0000 0.49748  0.49748  0.00252  Biso   1.000  Nb
  Nb4      1.0000 0.99748  0.99748  0.50252  Biso   1.000  Nb
  Ta1      1.0000 0.64558  0.85842  0.14158  Biso   1.000  Ta
  Ta2      1.0000 0.14524  0.35808  0.64192  Biso   1.000  Ta
  Ta3      1.0000 0.64558  0.35808  0.14158  Biso   1.000  Ta
  Ta4      1.0000 0.14524  0.85842  0.64192  Biso   1.000  Ta
  Ta5      1.0000 0.35808  0.14524  0.85476  Biso   1.000  Ta
  Ta6      1.0000 0.85842  0.64558  0.35442  Biso   1.000  Ta
  Ta7      1.0000 0.35808  0.64558  0.85476  Biso   1.000  Ta
  Ta8      1.0000 0.85842  0.14524  0.35442  Biso   1.000  Ta
  O1       1.0000 0.51273  0.24651  0.00018  Biso   1.000  O
  O2       1.0000 0.99982  0.75942  0.48727  Biso   1.000  O
  O3       1.0000 0.49982  0.75942  0.98727  Biso   1.000  O
  O4       1.0000 0.01273  0.24651  0.50018  Biso   1.000  O
  O5       1.0000 0.24651  0.01273  0.24058  Biso   1.000  O
  O6       1.0000 0.75942  0.49982  0.75349  Biso   1.000  O
  O7       1.0000 0.24651  0.51273  0.24058  Biso   1.000  O
  O8       1.0000 0.75942  0.99982  0.75349  Biso   1.000  O
  O9       1.0000 0.56354  0.93330  0.06670  Biso   1.000  O
  O10      1.0000 0.07362  0.44338  0.55662  Biso   1.000  O
  O11      1.0000 0.56354  0.44338  0.06670  Biso   1.000  O
  O12      1.0000 0.07362  0.93330  0.55662  Biso   1.000  O
  O13      1.0000 0.44338  0.07362  0.92638  Biso   1.000  O
  O14      1.0000 0.93330  0.56354  0.43646  Biso   1.000  O
  O15      1.0000 0.44338  0.56354  0.92638  Biso   1.000  O
  O16      1.0000 0.93330  0.07362  0.43646  Biso   1.000  O
  O17      1.0000 0.63090  0.12306  0.12590  Biso   1.000  O
  O18      1.0000 0.13523  0.61750  0.63270  Biso   1.000  O
  O19      1.0000 0.63646  0.61750  0.13146  Biso   1.000  O
  O20      1.0000 0.12966  0.12306  0.62713  Biso   1.000  O
  O21      1.0000 0.37287  0.87986  0.87034  Biso   1.000  O
  O22      1.0000 0.86854  0.38542  0.36354  Biso   1.000  O
  O23      1.0000 0.36730  0.38542  0.86477  Biso   1.000  O
  O24      1.0000 0.87410  0.87986  0.36910  Biso   1.000  O
  O25      1.0000 0.12306  0.12966  0.12014  Biso   1.000  O
  O26      1.0000 0.61750  0.63646  0.61458  Biso   1.000  O
  O27      1.0000 0.12306  0.63090  0.12014  Biso   1.000  O
  O28      1.0000 0.61750  0.13523  0.61458  Biso   1.000  O
  O29      1.0000 0.38542  0.86854  0.38250  Biso   1.000  O
  O30      1.0000 0.87986  0.37287  0.87694  Biso   1.000  O
  O31      1.0000 0.38542  0.36730  0.38250  Biso   1.000  O
  O32      1.0000 0.87986  0.87410  0.87694  Biso   1.000  O
  O33      1.0000 0.70403  0.80029  0.19971  Biso   1.000  O
  O34      1.0000 0.20193  0.29819  0.70181  Biso   1.000  O
  O35      1.0000 0.70403  0.29819  0.19971  Biso   1.000  O
  O36      1.0000 0.20193  0.80029  0.70181  Biso   1.000  O
  O37      1.0000 0.29819  0.20193  0.79807  Biso   1.000  O
  O38      1.0000 0.80029  0.70403  0.29597  Biso   1.000  O
  O39      1.0000 0.29819  0.70403  0.79807  Biso   1.000  O
  O40      1.0000 0.80029  0.20193  0.29597  Biso   1.000  O
