data_image0
_cell_length_a       16.1647
_cell_length_b       7.8528
_cell_length_c       16.1647
_cell_angle_alpha    75.9423
_cell_angle_beta     28.1154
_cell_angle_gamma    75.9423

_symmetry_space_group_name_H-M    "P 1"
_symmetry_int_tables_number       1

loop_
  _symmetry_equiv_pos_as_xyz
  'x, y, z'

loop_
  _atom_site_label
  _atom_site_occupancy
  _atom_site_fract_x
  _atom_site_fract_y
  _atom_site_fract_z
  _atom_site_thermal_displace_type
  _atom_site_B_iso_or_equiv
  _atom_site_type_symbol
  K1       1.0000 0.51772  0.98228  0.01772  Biso   1.000  K
  K2       1.0000 0.98228  0.51772  0.48228  Biso   1.000  K
  K3       1.0000 0.50000  0.50000  0.00000  Biso   1.000  K
  K4       1.0000 0.00000  0.00000  0.50000  Biso   1.000  K
  Pb1      1.0000 0.32181  0.17301  0.82699  Biso   1.000  Pb
  Pb2      1.0000 0.81975  0.67507  0.32493  Biso   1.000  Pb
  Pb3      1.0000 0.32078  0.67404  0.82596  Biso   1.000  Pb
  Pb4      1.0000 0.82078  0.17404  0.32596  Biso   1.000  Pb
  Pb5      1.0000 0.17404  0.82078  0.67922  Biso   1.000  Pb
  Pb6      1.0000 0.67404  0.32078  0.17922  Biso   1.000  Pb
  Pb7      1.0000 0.17301  0.32181  0.67819  Biso   1.000  Pb
  Pb8      1.0000 0.67507  0.81975  0.18025  Biso   1.000  Pb
  Nb1      1.0000 0.99775  0.99775  0.00225  Biso   1.000  Nb
  Nb2      1.0000 0.49721  0.49721  0.50279  Biso   1.000  Nb
  Nb3      1.0000 0.99775  0.49721  0.00225  Biso   1.000  Nb
  Nb4      1.0000 0.49721  0.99775  0.50279  Biso   1.000  Nb
  Ta1      1.0000 0.14462  0.85746  0.14254  Biso   1.000  Ta
  Ta2      1.0000 0.64620  0.35904  0.64096  Biso   1.000  Ta
  Ta3      1.0000 0.14462  0.35904  0.14254  Biso   1.000  Ta
  Ta4      1.0000 0.64620  0.85746  0.64096  Biso   1.000  Ta
  Ta5      1.0000 0.85746  0.14462  0.85538  Biso   1.000  Ta
  Ta6      1.0000 0.35904  0.64620  0.35380  Biso   1.000  Ta
  Ta7      1.0000 0.85746  0.64620  0.85538  Biso   1.000  Ta
  Ta8      1.0000 0.35904  0.14462  0.35380  Biso   1.000  Ta
  O1       1.0000 0.00617  0.25297  0.99383  Biso   1.000  O
  O2       1.0000 0.50639  0.75297  0.49361  Biso   1.000  O
  O3       1.0000 0.00617  0.75297  0.99383  Biso   1.000  O
  O4       1.0000 0.50639  0.25297  0.49361  Biso   1.000  O
  O5       1.0000 0.75297  0.00617  0.24703  Biso   1.000  O
  O6       1.0000 0.25297  0.50639  0.74703  Biso   1.000  O
  O7       1.0000 0.75297  0.50639  0.24703  Biso   1.000  O
  O8       1.0000 0.25297  0.00617  0.74703  Biso   1.000  O
  O9       1.0000 0.06948  0.93924  0.06076  Biso   1.000  O
  O10      1.0000 0.56768  0.43744  0.56256  Biso   1.000  O
  O11      1.0000 0.06948  0.43744  0.06076  Biso   1.000  O
  O12      1.0000 0.56768  0.93924  0.56256  Biso   1.000  O
  O13      1.0000 0.93924  0.06948  0.93052  Biso   1.000  O
  O14      1.0000 0.43744  0.56768  0.43232  Biso   1.000  O
  O15      1.0000 0.93924  0.56768  0.93052  Biso   1.000  O
  O16      1.0000 0.43744  0.06948  0.43232  Biso   1.000  O
  O17      1.0000 0.13473  0.11840  0.13138  Biso   1.000  O
  O18      1.0000 0.63139  0.62215  0.62722  Biso   1.000  O
  O19      1.0000 0.13098  0.62215  0.12763  Biso   1.000  O
  O20      1.0000 0.63514  0.11840  0.63097  Biso   1.000  O
  O21      1.0000 0.87237  0.88076  0.86902  Biso   1.000  O
  O22      1.0000 0.36903  0.38451  0.36486  Biso   1.000  O
  O23      1.0000 0.86862  0.38451  0.86527  Biso   1.000  O
  O24      1.0000 0.37278  0.88076  0.36861  Biso   1.000  O
  O25      1.0000 0.62215  0.13098  0.11924  Biso   1.000  O
  O26      1.0000 0.11840  0.63514  0.61549  Biso   1.000  O
  O27      1.0000 0.62215  0.63139  0.11924  Biso   1.000  O
  O28      1.0000 0.11840  0.13473  0.61549  Biso   1.000  O
  O29      1.0000 0.88076  0.87237  0.37785  Biso   1.000  O
  O30      1.0000 0.38451  0.36903  0.88160  Biso   1.000  O
  O31      1.0000 0.88076  0.37278  0.37785  Biso   1.000  O
  O32      1.0000 0.38451  0.86862  0.88160  Biso   1.000  O
  O33      1.0000 0.19956  0.79582  0.20418  Biso   1.000  O
  O34      1.0000 0.70640  0.30266  0.69734  Biso   1.000  O
  O35      1.0000 0.19956  0.30266  0.20418  Biso   1.000  O
  O36      1.0000 0.70640  0.79582  0.69734  Biso   1.000  O
  O37      1.0000 0.79582  0.19956  0.80044  Biso   1.000  O
  O38      1.0000 0.30266  0.70640  0.29360  Biso   1.000  O
  O39      1.0000 0.79582  0.70640  0.80044  Biso   1.000  O
  O40      1.0000 0.30266  0.19956  0.29360  Biso   1.000  O
