data_image0
_cell_length_a       3.9264
_cell_length_b       15.1811
_cell_length_c       7.8528
_cell_angle_alpha    90
_cell_angle_beta     90
_cell_angle_gamma    90

_symmetry_space_group_name_H-M    "P 1"
_symmetry_int_tables_number       1

loop_
  _symmetry_equiv_pos_as_xyz
  'x, y, z'

loop_
  _atom_site_label
  _atom_site_occupancy
  _atom_site_fract_x
  _atom_site_fract_y
  _atom_site_fract_z
  _atom_site_thermal_displace_type
  _atom_site_B_iso_or_equiv
  _atom_site_type_symbol
  K1       1.0000 0.50000  0.51173  0.75000  Biso   1.000  K
  K2       1.0000 0.50000  0.48827  0.25000  Biso   1.000  K
  Pb1      1.0000 0.50000  0.14766  0.75259  Biso   1.000  Pb
  Pb2      1.0000 0.50000  0.14582  0.25259  Biso   1.000  Pb
  Pb3      1.0000 0.50000  0.85418  0.75259  Biso   1.000  Pb
  Pb4      1.0000 0.50000  0.85234  0.25259  Biso   1.000  Pb
  Nb1      1.0000 0.00000  0.00000  0.00252  Biso   1.000  Nb
  Nb2      1.0000 0.00000  0.00000  0.50252  Biso   1.000  Nb
  Ta1      1.0000 0.00000  0.28716  0.99890  Biso   1.000  Ta
  Ta2      1.0000 0.00000  0.28716  0.49743  Biso   1.000  Ta
  Ta3      1.0000 0.00000  0.71284  0.99743  Biso   1.000  Ta
  Ta4      1.0000 0.00000  0.71284  0.49890  Biso   1.000  Ta
  O1       1.0000 0.50000  0.00000  0.99372  Biso   1.000  O
  O2       1.0000 0.50000  0.00000  0.49372  Biso   1.000  O
  O3       1.0000 0.00000  0.00645  0.24703  Biso   1.000  O
  O4       1.0000 0.00000  0.99355  0.74703  Biso   1.000  O
  O5       1.0000 0.00000  0.13024  0.99362  Biso   1.000  O
  O6       1.0000 0.00000  0.13024  0.49945  Biso   1.000  O
  O7       1.0000 0.00000  0.86976  0.99945  Biso   1.000  O
  O8       1.0000 0.00000  0.86976  0.49362  Biso   1.000  O
  O9       1.0000 0.50000  0.26236  0.99849  Biso   1.000  O
  O10      1.0000 0.50000  0.26236  0.49774  Biso   1.000  O
  O11      1.0000 0.50000  0.73764  0.99774  Biso   1.000  O
  O12      1.0000 0.50000  0.73764  0.49849  Biso   1.000  O
  O13      1.0000 0.00000  0.73161  0.24854  Biso   1.000  O
  O14      1.0000 0.00000  0.74367  0.74854  Biso   1.000  O
  O15      1.0000 0.00000  0.25633  0.24854  Biso   1.000  O
  O16      1.0000 0.00000  0.26839  0.74854  Biso   1.000  O
  O17      1.0000 0.00000  0.40374  0.00281  Biso   1.000  O
  O18      1.0000 0.00000  0.40374  0.49497  Biso   1.000  O
  O19      1.0000 0.00000  0.59626  0.99497  Biso   1.000  O
  O20      1.0000 0.00000  0.59626  0.50281  Biso   1.000  O
