data_image0
_cell_length_a       15.6806
_cell_length_b       15.6806
_cell_length_c       5.55277
_cell_angle_alpha    100.198
_cell_angle_beta     100.198
_cell_angle_gamma    150.998

_symmetry_space_group_name_H-M    "P 1"
_symmetry_int_tables_number       1

loop_
  _symmetry_equiv_pos_as_xyz
  'x, y, z'

loop_
  _atom_site_label
  _atom_site_occupancy
  _atom_site_fract_x
  _atom_site_fract_y
  _atom_site_fract_z
  _atom_site_thermal_displace_type
  _atom_site_B_iso_or_equiv
  _atom_site_type_symbol
  K1       1.0000 0.25000  0.25000  0.49495  Biso   1.000  K
  K2       1.0000 0.75000  0.75000  0.50505  Biso   1.000  K
  Pb1      1.0000 0.42922  0.07596  0.50421  Biso   1.000  Pb
  Pb2      1.0000 0.92922  0.57596  0.49579  Biso   1.000  Pb
  Pb3      1.0000 0.07596  0.42922  0.50421  Biso   1.000  Pb
  Pb4      1.0000 0.57596  0.92922  0.49579  Biso   1.000  Pb
  Nb1      1.0000 0.50252  0.00252  0.00000  Biso   1.000  Nb
  Nb2      1.0000 0.00252  0.50252  0.00000  Biso   1.000  Nb
  Ta1      1.0000 0.35459  0.14175  0.00097  Biso   1.000  Ta
  Ta2      1.0000 0.85459  0.64175  0.99903  Biso   1.000  Ta
  Ta3      1.0000 0.64175  0.85459  0.99903  Biso   1.000  Ta
  Ta4      1.0000 0.14175  0.35459  0.00097  Biso   1.000  Ta
  O1       1.0000 0.74064  0.24681  0.50000  Biso   1.000  O
  O2       1.0000 0.24681  0.74064  0.50000  Biso   1.000  O
  O3       1.0000 0.75012  0.24395  0.00000  Biso   1.000  O
  O4       1.0000 0.24395  0.75012  0.00000  Biso   1.000  O
  O5       1.0000 0.43142  0.06166  0.99412  Biso   1.000  O
  O6       1.0000 0.93142  0.56166  0.00588  Biso   1.000  O
  O7       1.0000 0.56166  0.93142  0.00588  Biso   1.000  O
  O8       1.0000 0.06166  0.43142  0.99412  Biso   1.000  O
  O9       1.0000 0.61873  0.37751  0.50000  Biso   1.000  O
  O10      1.0000 0.11515  0.88109  0.50000  Biso   1.000  O
  O11      1.0000 0.37751  0.61873  0.50000  Biso   1.000  O
  O12      1.0000 0.88109  0.11515  0.50000  Biso   1.000  O
  O13      1.0000 0.87793  0.11915  0.00000  Biso   1.000  O
  O14      1.0000 0.38151  0.61557  0.00000  Biso   1.000  O
  O15      1.0000 0.61557  0.38151  0.00000  Biso   1.000  O
  O16      1.0000 0.11915  0.87793  0.00000  Biso   1.000  O
  O17      1.0000 0.29702  0.20076  0.00383  Biso   1.000  O
  O18      1.0000 0.79702  0.70076  0.99617  Biso   1.000  O
  O19      1.0000 0.70076  0.79702  0.99617  Biso   1.000  O
  O20      1.0000 0.20076  0.29702  0.00383  Biso   1.000  O
