data_image0
_cell_length_a       5.55277
_cell_length_b       15.1811
_cell_length_c       7.8528
_cell_angle_alpha    90
_cell_angle_beta     135
_cell_angle_gamma    90

_symmetry_space_group_name_H-M    "P 1"
_symmetry_int_tables_number       1

loop_
  _symmetry_equiv_pos_as_xyz
  'x, y, z'

loop_
  _atom_site_label
  _atom_site_occupancy
  _atom_site_fract_x
  _atom_site_fract_y
  _atom_site_fract_z
  _atom_site_thermal_displace_type
  _atom_site_B_iso_or_equiv
  _atom_site_type_symbol
  K1       1.0000 0.50000  0.50000  0.50000  Biso   1.000  K
  K2       1.0000 0.50000  0.50000  1.00000  Biso   1.000  K
  Pb1      1.0000 0.49481  0.14674  0.49951  Biso   1.000  Pb
  Pb2      1.0000 0.49481  0.14674  0.99012  Biso   1.000  Pb
  Pb3      1.0000 0.49481  0.85326  0.99951  Biso   1.000  Pb
  Pb4      1.0000 0.49481  0.85326  0.49012  Biso   1.000  Pb
  Nb1      1.0000 0.99496  0.00000  0.99496  Biso   1.000  Nb
  Nb2      1.0000 0.99496  0.00000  0.49496  Biso   1.000  Nb
  Ta1      1.0000 0.00577  0.28716  0.00472  Biso   1.000  Ta
  Ta2      1.0000 0.00156  0.28716  0.50261  Biso   1.000  Ta
  Ta3      1.0000 0.00156  0.71284  0.00261  Biso   1.000  Ta
  Ta4      1.0000 0.00577  0.71284  0.50472  Biso   1.000  Ta
  O1       1.0000 0.50594  0.01321  0.25924  Biso   1.000  O
  O2       1.0000 0.50594  0.98679  0.75924  Biso   1.000  O
  O3       1.0000 0.01255  0.00000  0.75924  Biso   1.000  O
  O4       1.0000 0.01255  0.00000  0.25924  Biso   1.000  O
  O5       1.0000 0.99430  0.13024  0.00061  Biso   1.000  O
  O6       1.0000 0.01955  0.13024  0.51323  Biso   1.000  O
  O7       1.0000 0.01955  0.86976  0.01323  Biso   1.000  O
  O8       1.0000 0.99430  0.86976  0.50061  Biso   1.000  O
  O9       1.0000 0.50292  0.25494  0.25334  Biso   1.000  O
  O10      1.0000 0.50292  0.26978  0.75334  Biso   1.000  O
  O11      1.0000 0.50292  0.74506  0.75334  Biso   1.000  O
  O12      1.0000 0.50292  0.73022  0.25334  Biso   1.000  O
  O13      1.0000 0.00377  0.73764  0.75334  Biso   1.000  O
  O14      1.0000 0.00377  0.73764  0.25334  Biso   1.000  O
  O15      1.0000 0.00377  0.26236  0.75334  Biso   1.000  O
  O16      1.0000 0.00377  0.26236  0.25334  Biso   1.000  O
  O17      1.0000 0.00969  0.40374  0.00595  Biso   1.000  O
  O18      1.0000 0.99475  0.40374  0.49848  Biso   1.000  O
  O19      1.0000 0.99475  0.59626  0.99848  Biso   1.000  O
  O20      1.0000 0.00969  0.59626  0.50595  Biso   1.000  O
