data_image0
_cell_length_a       15.6806
_cell_length_b       15.6806
_cell_length_c       15.6806
_cell_angle_alpha    29.0021
_cell_angle_beta     159.603
_cell_angle_gamma    159.603

_symmetry_space_group_name_H-M    "P 1"
_symmetry_int_tables_number       1

loop_
  _symmetry_equiv_pos_as_xyz
  'x, y, z'

loop_
  _atom_site_label
  _atom_site_occupancy
  _atom_site_fract_x
  _atom_site_fract_y
  _atom_site_fract_z
  _atom_site_thermal_displace_type
  _atom_site_B_iso_or_equiv
  _atom_site_type_symbol
  K1       1.0000 0.49495  0.75000  0.24495  Biso   1.000  K
  K2       1.0000 0.50505  0.25000  0.75505  Biso   1.000  K
  Pb1      1.0000 0.50940  0.57856  0.07758  Biso   1.000  Pb
  Pb2      1.0000 0.50097  0.07856  0.56916  Biso   1.000  Pb
  Pb3      1.0000 0.50940  0.93182  0.43084  Biso   1.000  Pb
  Pb4      1.0000 0.50097  0.43182  0.92242  Biso   1.000  Pb
  Nb1      1.0000 0.00504  0.00504  0.00000  Biso   1.000  Nb
  Nb2      1.0000 0.00504  0.50504  0.50000  Biso   1.000  Nb
  Ta1      1.0000 0.99537  0.13991  0.14261  Biso   1.000  Ta
  Ta2      1.0000 0.99730  0.63991  0.64455  Biso   1.000  Ta
  Ta3      1.0000 0.99730  0.85275  0.85739  Biso   1.000  Ta
  Ta4      1.0000 0.99537  0.35275  0.35545  Biso   1.000  Ta
  O1       1.0000 0.98745  0.73767  0.24361  Biso   1.000  O
  O2       1.0000 0.98745  0.24384  0.74977  Biso   1.000  O
  O3       1.0000 0.49406  0.23767  0.25023  Biso   1.000  O
  O4       1.0000 0.49406  0.74384  0.75639  Biso   1.000  O
  O5       1.0000 0.99895  0.05820  0.07100  Biso   1.000  O
  O6       1.0000 0.98720  0.55820  0.55924  Biso   1.000  O
  O7       1.0000 0.98720  0.92796  0.92900  Biso   1.000  O
  O8       1.0000 0.99895  0.42796  0.44076  Biso   1.000  O
  O9       1.0000 0.99623  0.87963  0.38255  Biso   1.000  O
  O10      1.0000 0.99623  0.37605  0.87897  Biso   1.000  O
  O11      1.0000 0.99623  0.11369  0.61661  Biso   1.000  O
  O12      1.0000 0.99623  0.61727  0.12019  Biso   1.000  O
  O13      1.0000 0.49708  0.11727  0.12103  Biso   1.000  O
  O14      1.0000 0.49708  0.61369  0.61745  Biso   1.000  O
  O15      1.0000 0.49708  0.37963  0.38339  Biso   1.000  O
  O16      1.0000 0.49708  0.87605  0.87981  Biso   1.000  O
  O17      1.0000 0.99395  0.19965  0.19804  Biso   1.000  O
  O18      1.0000 0.00161  0.69965  0.70570  Biso   1.000  O
  O19      1.0000 0.00161  0.79591  0.80196  Biso   1.000  O
  O20      1.0000 0.99395  0.29591  0.29430  Biso   1.000  O
