data_image0
_cell_length_a       15.6806
_cell_length_b       15.6806
_cell_length_c       3.9264
_cell_angle_alpha    90
_cell_angle_beta     90
_cell_angle_gamma    150.998

_symmetry_space_group_name_H-M    "P 1"
_symmetry_int_tables_number       1

loop_
  _symmetry_equiv_pos_as_xyz
  'x, y, z'

loop_
  _atom_site_label
  _atom_site_occupancy
  _atom_site_fract_x
  _atom_site_fract_y
  _atom_site_fract_z
  _atom_site_thermal_displace_type
  _atom_site_B_iso_or_equiv
  _atom_site_type_symbol
  K1       1.0000 0.50000  0.50000  0.50000  Biso   1.000  K
  K2       1.0000 0.00000  0.00000  0.50000  Biso   1.000  K
  Pb1      1.0000 0.67491  0.31991  0.49481  Biso   1.000  Pb
  Pb2      1.0000 0.17317  0.82165  0.49481  Biso   1.000  Pb
  Pb3      1.0000 0.31991  0.67491  0.49481  Biso   1.000  Pb
  Pb4      1.0000 0.82165  0.17317  0.49481  Biso   1.000  Pb
  Nb1      1.0000 0.49748  0.99748  0.99496  Biso   1.000  Nb
  Nb2      1.0000 0.99748  0.49748  0.99496  Biso   1.000  Nb
  Ta1      1.0000 0.35842  0.14558  0.00367  Biso   1.000  Ta
  Ta2      1.0000 0.85808  0.64524  0.00367  Biso   1.000  Ta
  Ta3      1.0000 0.64524  0.85808  0.00367  Biso   1.000  Ta
  Ta4      1.0000 0.14558  0.35842  0.00367  Biso   1.000  Ta
  O1       1.0000 0.74651  0.25942  0.01255  Biso   1.000  O
  O2       1.0000 0.25942  0.74651  0.01255  Biso   1.000  O
  O3       1.0000 0.50628  0.00628  0.50594  Biso   1.000  O
  O4       1.0000 0.00628  0.50628  0.50594  Biso   1.000  O
  O5       1.0000 0.43330  0.06354  0.00692  Biso   1.000  O
  O6       1.0000 0.94338  0.57362  0.00692  Biso   1.000  O
  O7       1.0000 0.57362  0.94338  0.00692  Biso   1.000  O
  O8       1.0000 0.06354  0.43330  0.00692  Biso   1.000  O
  O9       1.0000 0.62306  0.37986  0.00377  Biso   1.000  O
  O10      1.0000 0.11750  0.88542  0.00377  Biso   1.000  O
  O11      1.0000 0.37986  0.62306  0.00377  Biso   1.000  O
  O12      1.0000 0.88542  0.11750  0.00377  Biso   1.000  O
  O13      1.0000 0.63245  0.87009  0.50292  Biso   1.000  O
  O14      1.0000 0.13368  0.37132  0.50292  Biso   1.000  O
  O15      1.0000 0.37132  0.13368  0.50292  Biso   1.000  O
  O16      1.0000 0.87009  0.63245  0.50292  Biso   1.000  O
  O17      1.0000 0.30029  0.20403  0.00222  Biso   1.000  O
  O18      1.0000 0.79819  0.70193  0.00222  Biso   1.000  O
  O19      1.0000 0.70193  0.79819  0.00222  Biso   1.000  O
  O20      1.0000 0.20403  0.30029  0.00222  Biso   1.000  O
