data_image0
_cell_length_a       3.9264
_cell_length_b       15.6806
_cell_length_c       15.6806
_cell_angle_alpha    150.998
_cell_angle_beta     90
_cell_angle_gamma    90

_symmetry_space_group_name_H-M    "P 1"
_symmetry_int_tables_number       1

loop_
  _symmetry_equiv_pos_as_xyz
  'x, y, z'

loop_
  _atom_site_label
  _atom_site_occupancy
  _atom_site_fract_x
  _atom_site_fract_y
  _atom_site_fract_z
  _atom_site_thermal_displace_type
  _atom_site_B_iso_or_equiv
  _atom_site_type_symbol
  K1       1.0000 0.02121  0.50000  0.00000  Biso   1.000  K
  K2       1.0000 0.97879  0.00000  0.50000  Biso   1.000  K
  Pb1      1.0000 0.00009  0.67922  0.82596  Biso   1.000  Pb
  Pb2      1.0000 0.99991  0.17922  0.32596  Biso   1.000  Pb
  Pb3      1.0000 0.99991  0.82596  0.67922  Biso   1.000  Pb
  Pb4      1.0000 0.00009  0.32596  0.17922  Biso   1.000  Pb
  Nb1      1.0000 0.50000  0.00252  0.00252  Biso   1.000  Nb
  Nb2      1.0000 0.50000  0.50252  0.50252  Biso   1.000  Nb
  Ta1      1.0000 0.50000  0.85459  0.14175  Biso   1.000  Ta
  Ta2      1.0000 0.50000  0.35459  0.64175  Biso   1.000  Ta
  Ta3      1.0000 0.50000  0.14175  0.85459  Biso   1.000  Ta
  Ta4      1.0000 0.50000  0.64175  0.35459  Biso   1.000  Ta
  O1       1.0000 0.00000  0.99372  0.99372  Biso   1.000  O
  O2       1.0000 0.00000  0.49372  0.49372  Biso   1.000  O
  O3       1.0000 0.50000  0.24703  0.24703  Biso   1.000  O
  O4       1.0000 0.50000  0.74703  0.74703  Biso   1.000  O
  O5       1.0000 0.50000  0.93142  0.06166  Biso   1.000  O
  O6       1.0000 0.50000  0.43142  0.56166  Biso   1.000  O
  O7       1.0000 0.50000  0.06166  0.93142  Biso   1.000  O
  O8       1.0000 0.50000  0.56166  0.43142  Biso   1.000  O
  O9       1.0000 0.00000  0.86694  0.12930  Biso   1.000  O
  O10      1.0000 0.00000  0.36694  0.62930  Biso   1.000  O
  O11      1.0000 0.00000  0.12930  0.86694  Biso   1.000  O
  O12      1.0000 0.00000  0.62930  0.36694  Biso   1.000  O
  O13      1.0000 0.49988  0.37972  0.11736  Biso   1.000  O
  O14      1.0000 0.50012  0.87972  0.61736  Biso   1.000  O
  O15      1.0000 0.50012  0.11736  0.37972  Biso   1.000  O
  O16      1.0000 0.49988  0.61736  0.87972  Biso   1.000  O
  O17      1.0000 0.50000  0.79702  0.20076  Biso   1.000  O
  O18      1.0000 0.50000  0.29702  0.70076  Biso   1.000  O
  O19      1.0000 0.50000  0.20076  0.79702  Biso   1.000  O
  O20      1.0000 0.50000  0.70076  0.29702  Biso   1.000  O
