data_image0
_cell_length_a       15.6806
_cell_length_b       15.6806
_cell_length_c       15.6806
_cell_angle_alpha    29.0021
_cell_angle_beta     159.603
_cell_angle_gamma    159.603

_symmetry_space_group_name_H-M    "P 1"
_symmetry_int_tables_number       1

loop_
  _symmetry_equiv_pos_as_xyz
  'x, y, z'

loop_
  _atom_site_label
  _atom_site_occupancy
  _atom_site_fract_x
  _atom_site_fract_y
  _atom_site_fract_z
  _atom_site_thermal_displace_type
  _atom_site_B_iso_or_equiv
  _atom_site_type_symbol
  K1       1.0000 0.75000  0.75000  0.00000  Biso   1.000  K
  K2       1.0000 0.75000  0.25000  0.50000  Biso   1.000  K
  Pb1      1.0000 0.74844  0.57856  0.81662  Biso   1.000  Pb
  Pb2      1.0000 0.76193  0.07856  0.33012  Biso   1.000  Pb
  Pb3      1.0000 0.76193  0.93182  0.18338  Biso   1.000  Pb
  Pb4      1.0000 0.74844  0.43182  0.66988  Biso   1.000  Pb
  Nb1      1.0000 0.25441  0.00504  0.74937  Biso   1.000  Nb
  Nb2      1.0000 0.25568  0.50504  0.25063  Biso   1.000  Nb
  Ta1      1.0000 0.24821  0.13991  0.89545  Biso   1.000  Ta
  Ta2      1.0000 0.24446  0.63991  0.39171  Biso   1.000  Ta
  Ta3      1.0000 0.24821  0.85275  0.60829  Biso   1.000  Ta
  Ta4      1.0000 0.24446  0.35275  0.10455  Biso   1.000  Ta
  O1       1.0000 0.23745  0.74076  0.99669  Biso   1.000  O
  O2       1.0000 0.23745  0.24076  0.49669  Biso   1.000  O
  O3       1.0000 0.74406  0.24076  0.00331  Biso   1.000  O
  O4       1.0000 0.74406  0.74076  0.50331  Biso   1.000  O
  O5       1.0000 0.23724  0.05820  0.80929  Biso   1.000  O
  O6       1.0000 0.24891  0.55820  0.32095  Biso   1.000  O
  O7       1.0000 0.23724  0.92796  0.67905  Biso   1.000  O
  O8       1.0000 0.24891  0.42796  0.19071  Biso   1.000  O
  O9       1.0000 0.24623  0.87568  0.12860  Biso   1.000  O
  O10      1.0000 0.24623  0.37999  0.63291  Biso   1.000  O
  O11      1.0000 0.24623  0.11332  0.36624  Biso   1.000  O
  O12      1.0000 0.24623  0.61763  0.87055  Biso   1.000  O
  O13      1.0000 0.74708  0.11763  0.87140  Biso   1.000  O
  O14      1.0000 0.74708  0.61332  0.36709  Biso   1.000  O
  O15      1.0000 0.74708  0.37568  0.12945  Biso   1.000  O
  O16      1.0000 0.74708  0.87999  0.63376  Biso   1.000  O
  O17      1.0000 0.25104  0.19965  0.95512  Biso   1.000  O
  O18      1.0000 0.24453  0.69965  0.44862  Biso   1.000  O
  O19      1.0000 0.25104  0.79591  0.55138  Biso   1.000  O
  O20      1.0000 0.24453  0.29591  0.04488  Biso   1.000  O
