data_image0
_cell_length_a       5.55277
_cell_length_b       15.1811
_cell_length_c       5.55277
_cell_angle_alpha    90
_cell_angle_beta     90
_cell_angle_gamma    90

_symmetry_space_group_name_H-M    "P 1"
_symmetry_int_tables_number       1

loop_
  _symmetry_equiv_pos_as_xyz
  'x, y, z'

loop_
  _atom_site_label
  _atom_site_occupancy
  _atom_site_fract_x
  _atom_site_fract_y
  _atom_site_fract_z
  _atom_site_thermal_displace_type
  _atom_site_B_iso_or_equiv
  _atom_site_type_symbol
  K1       1.0000 0.01129  0.50000  0.48871  Biso   1.000  K
  K2       1.0000 0.48871  0.50000  0.01129  Biso   1.000  K
  Pb1      1.0000 0.99627  0.85326  0.50891  Biso   1.000  Pb
  Pb2      1.0000 0.50373  0.85326  0.00146  Biso   1.000  Pb
  Pb3      1.0000 0.50373  0.14674  0.00146  Biso   1.000  Pb
  Pb4      1.0000 0.99627  0.14674  0.50891  Biso   1.000  Pb
  Nb1      1.0000 0.99991  0.00000  0.00495  Biso   1.000  Nb
  Nb2      1.0000 0.50009  0.00000  0.50513  Biso   1.000  Nb
  Ta1      1.0000 0.00175  0.71284  0.99808  Biso   1.000  Ta
  Ta2      1.0000 0.49825  0.71284  0.49459  Biso   1.000  Ta
  Ta3      1.0000 0.00175  0.28716  0.99808  Biso   1.000  Ta
  Ta4      1.0000 0.49825  0.28716  0.49459  Biso   1.000  Ta
  O1       1.0000 0.24669  0.00000  0.74076  Biso   1.000  O
  O2       1.0000 0.74669  0.00000  0.24076  Biso   1.000  O
  O3       1.0000 0.25331  0.00000  0.24076  Biso   1.000  O
  O4       1.0000 0.75331  0.00000  0.74076  Biso   1.000  O
  O5       1.0000 0.99827  0.86976  0.99134  Biso   1.000  O
  O6       1.0000 0.50173  0.86976  0.49481  Biso   1.000  O
  O7       1.0000 0.99827  0.13024  0.99134  Biso   1.000  O
  O8       1.0000 0.50173  0.13024  0.49481  Biso   1.000  O
  O9       1.0000 0.24958  0.73764  0.74666  Biso   1.000  O
  O10      1.0000 0.74958  0.73764  0.24666  Biso   1.000  O
  O11      1.0000 0.74958  0.26236  0.24666  Biso   1.000  O
  O12      1.0000 0.24958  0.26236  0.74666  Biso   1.000  O
  O13      1.0000 0.25042  0.25715  0.24666  Biso   1.000  O
  O14      1.0000 0.75042  0.26757  0.74666  Biso   1.000  O
  O15      1.0000 0.25042  0.74285  0.24666  Biso   1.000  O
  O16      1.0000 0.75042  0.73243  0.74666  Biso   1.000  O
  O17      1.0000 0.00469  0.59626  0.00247  Biso   1.000  O
  O18      1.0000 0.49531  0.59626  0.49309  Biso   1.000  O
  O19      1.0000 0.00469  0.40374  0.00247  Biso   1.000  O
  O20      1.0000 0.49531  0.40374  0.49309  Biso   1.000  O
