data_image0
_cell_length_a       16.1647
_cell_length_b       7.8528
_cell_length_c       16.1647
_cell_angle_alpha    75.9423
_cell_angle_beta     28.1154
_cell_angle_gamma    75.9423

_symmetry_space_group_name_H-M    "P 1"
_symmetry_int_tables_number       1

loop_
  _symmetry_equiv_pos_as_xyz
  'x, y, z'

loop_
  _atom_site_label
  _atom_site_occupancy
  _atom_site_fract_x
  _atom_site_fract_y
  _atom_site_fract_z
  _atom_site_thermal_displace_type
  _atom_site_B_iso_or_equiv
  _atom_site_type_symbol
  K1       1.0000 0.01061  0.01061  0.98939  Biso   1.000  K
  K2       1.0000 0.48939  0.48939  0.51061  Biso   1.000  K
  K3       1.0000 0.98939  0.51061  0.01061  Biso   1.000  K
  K4       1.0000 0.51061  0.98939  0.48939  Biso   1.000  K
  Pb1      1.0000 0.82082  0.17408  0.82592  Biso   1.000  Pb
  Pb2      1.0000 0.32073  0.67399  0.32601  Biso   1.000  Pb
  Pb3      1.0000 0.82073  0.67408  0.82601  Biso   1.000  Pb
  Pb4      1.0000 0.32082  0.17399  0.32592  Biso   1.000  Pb
  Pb5      1.0000 0.67408  0.82073  0.67918  Biso   1.000  Pb
  Pb6      1.0000 0.17399  0.32082  0.17927  Biso   1.000  Pb
  Pb7      1.0000 0.67399  0.32073  0.67927  Biso   1.000  Pb
  Pb8      1.0000 0.17408  0.82082  0.17918  Biso   1.000  Pb
  Nb1      1.0000 0.49748  0.99748  0.00252  Biso   1.000  Nb
  Nb2      1.0000 0.99748  0.49748  0.50252  Biso   1.000  Nb
  Nb3      1.0000 0.49748  0.49748  0.00252  Biso   1.000  Nb
  Nb4      1.0000 0.99748  0.99748  0.50252  Biso   1.000  Nb
  Ta1      1.0000 0.64541  0.85825  0.14175  Biso   1.000  Ta
  Ta2      1.0000 0.14541  0.35825  0.64175  Biso   1.000  Ta
  Ta3      1.0000 0.64541  0.35825  0.14175  Biso   1.000  Ta
  Ta4      1.0000 0.14541  0.85825  0.64175  Biso   1.000  Ta
  Ta5      1.0000 0.35825  0.14541  0.85459  Biso   1.000  Ta
  Ta6      1.0000 0.85825  0.64541  0.35459  Biso   1.000  Ta
  Ta7      1.0000 0.35825  0.64541  0.85459  Biso   1.000  Ta
  Ta8      1.0000 0.85825  0.14541  0.35459  Biso   1.000  Ta
  O1       1.0000 0.50628  0.25297  0.99372  Biso   1.000  O
  O2       1.0000 0.00628  0.75297  0.49372  Biso   1.000  O
  O3       1.0000 0.50628  0.75297  0.99372  Biso   1.000  O
  O4       1.0000 0.00628  0.25297  0.49372  Biso   1.000  O
  O5       1.0000 0.25297  0.00628  0.24703  Biso   1.000  O
  O6       1.0000 0.75297  0.50628  0.74703  Biso   1.000  O
  O7       1.0000 0.25297  0.50628  0.24703  Biso   1.000  O
  O8       1.0000 0.75297  0.00628  0.74703  Biso   1.000  O
  O9       1.0000 0.56858  0.93834  0.06166  Biso   1.000  O
  O10      1.0000 0.06858  0.43834  0.56166  Biso   1.000  O
  O11      1.0000 0.56858  0.43834  0.06166  Biso   1.000  O
  O12      1.0000 0.06858  0.93834  0.56166  Biso   1.000  O
  O13      1.0000 0.43834  0.06858  0.93142  Biso   1.000  O
  O14      1.0000 0.93834  0.56858  0.43142  Biso   1.000  O
  O15      1.0000 0.43834  0.56858  0.93142  Biso   1.000  O
  O16      1.0000 0.93834  0.06858  0.43142  Biso   1.000  O
  O17      1.0000 0.63300  0.12028  0.12936  Biso   1.000  O
  O18      1.0000 0.13312  0.62028  0.62924  Biso   1.000  O
  O19      1.0000 0.63312  0.62028  0.12924  Biso   1.000  O
  O20      1.0000 0.13300  0.12028  0.62936  Biso   1.000  O
  O21      1.0000 0.37064  0.88264  0.86700  Biso   1.000  O
  O22      1.0000 0.87076  0.38264  0.36688  Biso   1.000  O
  O23      1.0000 0.37076  0.38264  0.86688  Biso   1.000  O
  O24      1.0000 0.87064  0.88264  0.36700  Biso   1.000  O
  O25      1.0000 0.12028  0.13300  0.11736  Biso   1.000  O
  O26      1.0000 0.62028  0.63312  0.61736  Biso   1.000  O
  O27      1.0000 0.12028  0.63300  0.11736  Biso   1.000  O
  O28      1.0000 0.62028  0.13312  0.61736  Biso   1.000  O
  O29      1.0000 0.38264  0.87076  0.37972  Biso   1.000  O
  O30      1.0000 0.88264  0.37064  0.87972  Biso   1.000  O
  O31      1.0000 0.38264  0.37076  0.37972  Biso   1.000  O
  O32      1.0000 0.88264  0.87064  0.87972  Biso   1.000  O
  O33      1.0000 0.70298  0.79924  0.20076  Biso   1.000  O
  O34      1.0000 0.20298  0.29924  0.70076  Biso   1.000  O
  O35      1.0000 0.70298  0.29924  0.20076  Biso   1.000  O
  O36      1.0000 0.20298  0.79924  0.70076  Biso   1.000  O
  O37      1.0000 0.29924  0.20298  0.79702  Biso   1.000  O
  O38      1.0000 0.79924  0.70298  0.29702  Biso   1.000  O
  O39      1.0000 0.29924  0.70298  0.79702  Biso   1.000  O
  O40      1.0000 0.79924  0.20298  0.29702  Biso   1.000  O
