data_image0
_cell_length_a       16.1647
_cell_length_b       16.1647
_cell_length_c       16.1647
_cell_angle_alpha    151.885
_cell_angle_beta     151.885
_cell_angle_gamma    40.1819

_symmetry_space_group_name_H-M    "P 1"
_symmetry_int_tables_number       1

loop_
  _symmetry_equiv_pos_as_xyz
  'x, y, z'

loop_
  _atom_site_label
  _atom_site_occupancy
  _atom_site_fract_x
  _atom_site_fract_y
  _atom_site_fract_z
  _atom_site_thermal_displace_type
  _atom_site_B_iso_or_equiv
  _atom_site_type_symbol
  K1       1.0000 0.50000  0.50000  0.00000  Biso   1.000  K
  K2       1.0000 0.00000  0.00000  0.00000  Biso   1.000  K
  K3       1.0000 0.50000  0.00000  0.50000  Biso   1.000  K
  K4       1.0000 0.00000  0.50000  0.50000  Biso   1.000  K
  Pb1      1.0000 0.67750  0.67750  0.00000  Biso   1.000  Pb
  Pb2      1.0000 0.17576  0.17576  0.00000  Biso   1.000  Pb
  Pb3      1.0000 0.67750  0.17750  0.50000  Biso   1.000  Pb
  Pb4      1.0000 0.17576  0.67576  0.50000  Biso   1.000  Pb
  Pb5      1.0000 0.82424  0.32424  0.50000  Biso   1.000  Pb
  Pb6      1.0000 0.32250  0.82250  0.50000  Biso   1.000  Pb
  Pb7      1.0000 0.82424  0.82424  0.00000  Biso   1.000  Pb
  Pb8      1.0000 0.32250  0.32250  0.00000  Biso   1.000  Pb
  Nb1      1.0000 0.00000  0.00000  0.50000  Biso   1.000  Nb
  Nb2      1.0000 0.50000  0.50000  0.50000  Biso   1.000  Nb
  Nb3      1.0000 0.00000  0.50000  0.00000  Biso   1.000  Nb
  Nb4      1.0000 0.50000  0.00000  0.00000  Biso   1.000  Nb
  Ta1      1.0000 0.85625  0.85642  0.49983  Biso   1.000  Ta
  Ta2      1.0000 0.35659  0.35642  0.50017  Biso   1.000  Ta
  Ta3      1.0000 0.85625  0.35642  0.99983  Biso   1.000  Ta
  Ta4      1.0000 0.35659  0.85642  0.00017  Biso   1.000  Ta
  Ta5      1.0000 0.14375  0.14358  0.50017  Biso   1.000  Ta
  Ta6      1.0000 0.64341  0.64358  0.49983  Biso   1.000  Ta
  Ta7      1.0000 0.14375  0.64358  0.00017  Biso   1.000  Ta
  Ta8      1.0000 0.64341  0.14358  0.99983  Biso   1.000  Ta
  O1       1.0000 0.99250  0.75000  0.24250  Biso   1.000  O
  O2       1.0000 0.49250  0.25000  0.24250  Biso   1.000  O
  O3       1.0000 0.00750  0.25000  0.75750  Biso   1.000  O
  O4       1.0000 0.50750  0.75000  0.75750  Biso   1.000  O
  O5       1.0000 0.25646  0.99896  0.74250  Biso   1.000  O
  O6       1.0000 0.74354  0.48604  0.74250  Biso   1.000  O
  O7       1.0000 0.25646  0.51396  0.25750  Biso   1.000  O
  O8       1.0000 0.74354  0.00104  0.25750  Biso   1.000  O
  O9       1.0000 0.93992  0.93488  0.50504  Biso   1.000  O
  O10      1.0000 0.42984  0.43488  0.49496  Biso   1.000  O
  O11      1.0000 0.93992  0.43488  0.00504  Biso   1.000  O
  O12      1.0000 0.42984  0.93488  0.99496  Biso   1.000  O
  O13      1.0000 0.06008  0.06512  0.49496  Biso   1.000  O
  O14      1.0000 0.57016  0.56512  0.50504  Biso   1.000  O
  O15      1.0000 0.06008  0.56512  0.99496  Biso   1.000  O
  O16      1.0000 0.57016  0.06512  0.00504  Biso   1.000  O
  O17      1.0000 0.86831  0.61882  0.24949  Biso   1.000  O
  O18      1.0000 0.36954  0.11882  0.25072  Biso   1.000  O
  O19      1.0000 0.86810  0.11882  0.74928  Biso   1.000  O
  O20      1.0000 0.36933  0.61882  0.75051  Biso   1.000  O
  O21      1.0000 0.13169  0.38118  0.75051  Biso   1.000  O
  O22      1.0000 0.63046  0.88118  0.74928  Biso   1.000  O
  O23      1.0000 0.13190  0.88118  0.25072  Biso   1.000  O
  O24      1.0000 0.63067  0.38118  0.24949  Biso   1.000  O
  O25      1.0000 0.37840  0.12850  0.75010  Biso   1.000  O
  O26      1.0000 0.88396  0.63407  0.75010  Biso   1.000  O
  O27      1.0000 0.37840  0.62829  0.24990  Biso   1.000  O
  O28      1.0000 0.88396  0.13386  0.24990  Biso   1.000  O
  O29      1.0000 0.11604  0.86614  0.75010  Biso   1.000  O
  O30      1.0000 0.62160  0.37171  0.75010  Biso   1.000  O
  O31      1.0000 0.11604  0.36593  0.24990  Biso   1.000  O
  O32      1.0000 0.62160  0.87150  0.24990  Biso   1.000  O
  O33      1.0000 0.79708  0.79813  0.49895  Biso   1.000  O
  O34      1.0000 0.29918  0.29813  0.50105  Biso   1.000  O
  O35      1.0000 0.79708  0.29813  0.99895  Biso   1.000  O
  O36      1.0000 0.29918  0.79813  0.00105  Biso   1.000  O
  O37      1.0000 0.20292  0.20187  0.50105  Biso   1.000  O
  O38      1.0000 0.70082  0.70187  0.49895  Biso   1.000  O
  O39      1.0000 0.20292  0.70187  0.00105  Biso   1.000  O
  O40      1.0000 0.70082  0.20187  0.99895  Biso   1.000  O
