data_image0
_cell_length_a       5.55277
_cell_length_b       15.1811
_cell_length_c       5.55277
_cell_angle_alpha    90
_cell_angle_beta     90
_cell_angle_gamma    90

_symmetry_space_group_name_H-M    "P 1"
_symmetry_int_tables_number       1

loop_
  _symmetry_equiv_pos_as_xyz
  'x, y, z'

loop_
  _atom_site_label
  _atom_site_occupancy
  _atom_site_fract_x
  _atom_site_fract_y
  _atom_site_fract_z
  _atom_site_thermal_displace_type
  _atom_site_B_iso_or_equiv
  _atom_site_type_symbol
  K1       1.0000 0.76129  0.50000  0.25000  Biso   1.000  K
  K2       1.0000 0.23871  0.50000  0.75000  Biso   1.000  K
  Pb1      1.0000 0.74158  0.85326  0.24531  Biso   1.000  Pb
  Pb2      1.0000 0.25842  0.85326  0.75469  Biso   1.000  Pb
  Pb3      1.0000 0.24904  0.14674  0.74531  Biso   1.000  Pb
  Pb4      1.0000 0.75096  0.14674  0.25469  Biso   1.000  Pb
  Nb1      1.0000 0.74991  0.00000  0.75000  Biso   1.000  Nb
  Nb2      1.0000 0.25009  0.00000  0.25000  Biso   1.000  Nb
  Ta1      1.0000 0.75280  0.71284  0.74895  Biso   1.000  Ta
  Ta2      1.0000 0.24720  0.71284  0.25105  Biso   1.000  Ta
  Ta3      1.0000 0.75069  0.28716  0.75105  Biso   1.000  Ta
  Ta4      1.0000 0.24931  0.28716  0.24895  Biso   1.000  Ta
  O1       1.0000 0.00000  0.98679  0.50000  Biso   1.000  O
  O2       1.0000 0.50000  0.01321  0.00000  Biso   1.000  O
  O3       1.0000 0.00000  0.00000  0.00000  Biso   1.000  O
  O4       1.0000 0.50000  0.00000  0.50000  Biso   1.000  O
  O5       1.0000 0.74196  0.86976  0.75631  Biso   1.000  O
  O6       1.0000 0.25804  0.86976  0.24369  Biso   1.000  O
  O7       1.0000 0.75458  0.13024  0.74369  Biso   1.000  O
  O8       1.0000 0.24542  0.13024  0.25631  Biso   1.000  O
  O9       1.0000 0.00000  0.74767  0.50000  Biso   1.000  O
  O10      1.0000 0.50000  0.72761  0.00000  Biso   1.000  O
  O11      1.0000 0.50000  0.25755  0.00000  Biso   1.000  O
  O12      1.0000 0.00000  0.26717  0.50000  Biso   1.000  O
  O13      1.0000 0.00000  0.25975  0.00000  Biso   1.000  O
  O14      1.0000 0.50000  0.26497  0.50000  Biso   1.000  O
  O15      1.0000 0.00000  0.74025  0.00000  Biso   1.000  O
  O16      1.0000 0.50000  0.73503  0.50000  Biso   1.000  O
  O17      1.0000 0.75843  0.59626  0.74627  Biso   1.000  O
  O18      1.0000 0.24157  0.59626  0.25373  Biso   1.000  O
  O19      1.0000 0.75096  0.40374  0.75373  Biso   1.000  O
  O20      1.0000 0.24904  0.40374  0.24627  Biso   1.000  O
