data_image0
_cell_length_a       5.55277
_cell_length_b       30.3622
_cell_length_c       7.8528
_cell_angle_alpha    90
_cell_angle_beta     135
_cell_angle_gamma    90

_symmetry_space_group_name_H-M    "P 1"
_symmetry_int_tables_number       1

loop_
  _symmetry_equiv_pos_as_xyz
  'x, y, z'

loop_
  _atom_site_label
  _atom_site_occupancy
  _atom_site_fract_x
  _atom_site_fract_y
  _atom_site_fract_z
  _atom_site_thermal_displace_type
  _atom_site_B_iso_or_equiv
  _atom_site_type_symbol
  K1       1.0000 0.50000  0.00000  0.50000  Biso   1.000  K
  K2       1.0000 0.50000  0.50000  0.50000  Biso   1.000  K
  K3       1.0000 0.50000  0.00000  0.00000  Biso   1.000  K
  K4       1.0000 0.50000  0.50000  0.00000  Biso   1.000  K
  Pb1      1.0000 0.49855  0.82337  0.50469  Biso   1.000  Pb
  Pb2      1.0000 0.50145  0.32337  0.50469  Biso   1.000  Pb
  Pb3      1.0000 0.49855  0.82337  0.99531  Biso   1.000  Pb
  Pb4      1.0000 0.50145  0.32337  0.99531  Biso   1.000  Pb
  Pb5      1.0000 0.49855  0.67663  0.00469  Biso   1.000  Pb
  Pb6      1.0000 0.50145  0.17663  0.00469  Biso   1.000  Pb
  Pb7      1.0000 0.49855  0.67663  0.49531  Biso   1.000  Pb
  Pb8      1.0000 0.50145  0.17663  0.49531  Biso   1.000  Pb
  Nb1      1.0000 0.00000  0.75000  0.00000  Biso   1.000  Nb
  Nb2      1.0000 0.00000  0.25000  0.00000  Biso   1.000  Nb
  Nb3      1.0000 0.00000  0.75000  0.50000  Biso   1.000  Nb
  Nb4      1.0000 0.00000  0.25000  0.50000  Biso   1.000  Nb
  Ta1      1.0000 0.99609  0.89358  0.00105  Biso   1.000  Ta
  Ta2      1.0000 0.00812  0.39358  0.00105  Biso   1.000  Ta
  Ta3      1.0000 0.99188  0.89358  0.49895  Biso   1.000  Ta
  Ta4      1.0000 0.00391  0.39358  0.49895  Biso   1.000  Ta
  Ta5      1.0000 0.99188  0.60642  0.99895  Biso   1.000  Ta
  Ta6      1.0000 0.00391  0.10642  0.99895  Biso   1.000  Ta
  Ta7      1.0000 0.99609  0.60642  0.50105  Biso   1.000  Ta
  Ta8      1.0000 0.00812  0.10642  0.50105  Biso   1.000  Ta
  O1       1.0000 0.49610  0.75661  0.25168  Biso   1.000  O
  O2       1.0000 0.50390  0.25661  0.24832  Biso   1.000  O
  O3       1.0000 0.49610  0.74339  0.75168  Biso   1.000  O
  O4       1.0000 0.50390  0.24339  0.74832  Biso   1.000  O
  O5       1.0000 0.99275  0.75000  0.74832  Biso   1.000  O
  O6       1.0000 0.00725  0.25000  0.75168  Biso   1.000  O
  O7       1.0000 0.99275  0.75000  0.24832  Biso   1.000  O
  O8       1.0000 0.00725  0.25000  0.25168  Biso   1.000  O
  O9       1.0000 0.98287  0.81512  0.99369  Biso   1.000  O
  O10      1.0000 0.99189  0.31512  0.99369  Biso   1.000  O
  O11      1.0000 0.00811  0.81512  0.50631  Biso   1.000  O
  O12      1.0000 0.01713  0.31512  0.50631  Biso   1.000  O
  O13      1.0000 0.00811  0.68488  0.00631  Biso   1.000  O
  O14      1.0000 0.01713  0.18488  0.00631  Biso   1.000  O
  O15      1.0000 0.98287  0.68488  0.49369  Biso   1.000  O
  O16      1.0000 0.99189  0.18488  0.49369  Biso   1.000  O
  O17      1.0000 0.49758  0.87747  0.25020  Biso   1.000  O
  O18      1.0000 0.50242  0.37747  0.24980  Biso   1.000  O
  O19      1.0000 0.49758  0.88489  0.75020  Biso   1.000  O
  O20      1.0000 0.50242  0.38489  0.74980  Biso   1.000  O
  O21      1.0000 0.49758  0.62253  0.75020  Biso   1.000  O
  O22      1.0000 0.50242  0.12253  0.74980  Biso   1.000  O
  O23      1.0000 0.49758  0.61511  0.25020  Biso   1.000  O
  O24      1.0000 0.50242  0.11511  0.24980  Biso   1.000  O
  O25      1.0000 0.99719  0.61882  0.74980  Biso   1.000  O
  O26      1.0000 0.00281  0.11882  0.75020  Biso   1.000  O
  O27      1.0000 0.99719  0.61882  0.24980  Biso   1.000  O
  O28      1.0000 0.00281  0.11882  0.25020  Biso   1.000  O
  O29      1.0000 0.99719  0.88118  0.74980  Biso   1.000  O
  O30      1.0000 0.00281  0.38118  0.75020  Biso   1.000  O
  O31      1.0000 0.99719  0.88118  0.24980  Biso   1.000  O
  O32      1.0000 0.00281  0.38118  0.25020  Biso   1.000  O
  O33      1.0000 0.00500  0.95187  0.00373  Biso   1.000  O
  O34      1.0000 0.00994  0.45187  0.00373  Biso   1.000  O
  O35      1.0000 0.99006  0.95187  0.49627  Biso   1.000  O
  O36      1.0000 0.99500  0.45187  0.49627  Biso   1.000  O
  O37      1.0000 0.99006  0.54813  0.99627  Biso   1.000  O
  O38      1.0000 0.99500  0.04813  0.99627  Biso   1.000  O
  O39      1.0000 0.00500  0.54813  0.50373  Biso   1.000  O
  O40      1.0000 0.00994  0.04813  0.50373  Biso   1.000  O
