data_image0
_cell_length_a       15.1811
_cell_length_b       5.55277
_cell_length_c       5.55277
_cell_angle_alpha    90
_cell_angle_beta     90
_cell_angle_gamma    90

_symmetry_space_group_name_H-M    "P 1"
_symmetry_int_tables_number       1

loop_
  _symmetry_equiv_pos_as_xyz
  'x, y, z'

loop_
  _atom_site_label
  _atom_site_occupancy
  _atom_site_fract_x
  _atom_site_fract_y
  _atom_site_fract_z
  _atom_site_thermal_displace_type
  _atom_site_B_iso_or_equiv
  _atom_site_type_symbol
  K1       1.0000 0.50000  0.00000  0.50000  Biso   1.000  K
  K2       1.0000 0.50000  0.50000  0.00000  Biso   1.000  K
  Pb1      1.0000 0.14674  0.99790  0.49790  Biso   1.000  Pb
  Pb2      1.0000 0.14674  0.50728  0.00728  Biso   1.000  Pb
  Pb3      1.0000 0.85326  0.49790  0.99790  Biso   1.000  Pb
  Pb4      1.0000 0.85326  0.00728  0.50728  Biso   1.000  Pb
  Nb1      1.0000 0.00000  0.00252  0.00252  Biso   1.000  Nb
  Nb2      1.0000 0.00000  0.50252  0.50252  Biso   1.000  Nb
  Ta1      1.0000 0.28716  0.99922  0.99711  Biso   1.000  Ta
  Ta2      1.0000 0.28716  0.49711  0.49922  Biso   1.000  Ta
  Ta3      1.0000 0.71284  0.99711  0.99922  Biso   1.000  Ta
  Ta4      1.0000 0.71284  0.49922  0.49711  Biso   1.000  Ta
  O1       1.0000 0.01321  0.24372  0.74372  Biso   1.000  O
  O2       1.0000 0.98679  0.74372  0.24372  Biso   1.000  O
  O3       1.0000 0.00000  0.24703  0.24703  Biso   1.000  O
  O4       1.0000 0.00000  0.74703  0.74703  Biso   1.000  O
  O5       1.0000 0.13024  0.99023  0.00285  Biso   1.000  O
  O6       1.0000 0.13024  0.50285  0.49023  Biso   1.000  O
  O7       1.0000 0.86976  0.00285  0.99023  Biso   1.000  O
  O8       1.0000 0.86976  0.49023  0.50285  Biso   1.000  O
  O9       1.0000 0.25494  0.24812  0.74812  Biso   1.000  O
  O10      1.0000 0.26978  0.74812  0.24812  Biso   1.000  O
  O11      1.0000 0.74506  0.74812  0.24812  Biso   1.000  O
  O12      1.0000 0.73022  0.24812  0.74812  Biso   1.000  O
  O13      1.0000 0.73764  0.24854  0.24854  Biso   1.000  O
  O14      1.0000 0.73764  0.74854  0.74854  Biso   1.000  O
  O15      1.0000 0.26236  0.24854  0.24854  Biso   1.000  O
  O16      1.0000 0.26236  0.74854  0.74854  Biso   1.000  O
  O17      1.0000 0.40374  0.00263  0.99516  Biso   1.000  O
  O18      1.0000 0.40374  0.49516  0.50263  Biso   1.000  O
  O19      1.0000 0.59626  0.99516  0.00263  Biso   1.000  O
  O20      1.0000 0.59626  0.50263  0.49516  Biso   1.000  O
