data_image0
_cell_length_a       5.55277
_cell_length_b       5.55277
_cell_length_c       30.3622
_cell_angle_alpha    90
_cell_angle_beta     90
_cell_angle_gamma    90

_symmetry_space_group_name_H-M    "P 1"
_symmetry_int_tables_number       1

loop_
  _symmetry_equiv_pos_as_xyz
  'x, y, z'

loop_
  _atom_site_label
  _atom_site_occupancy
  _atom_site_fract_x
  _atom_site_fract_y
  _atom_site_fract_z
  _atom_site_thermal_displace_type
  _atom_site_B_iso_or_equiv
  _atom_site_type_symbol
  K1       1.0000 0.00000  0.50000  0.00000  Biso   1.000  K
  K2       1.0000 0.00000  0.50000  0.50000  Biso   1.000  K
  K3       1.0000 0.50000  0.00000  0.00000  Biso   1.000  K
  K4       1.0000 0.50000  0.00000  0.50000  Biso   1.000  K
  Pb1      1.0000 0.99531  0.49855  0.82337  Biso   1.000  Pb
  Pb2      1.0000 0.99531  0.50145  0.32337  Biso   1.000  Pb
  Pb3      1.0000 0.50469  0.99855  0.82337  Biso   1.000  Pb
  Pb4      1.0000 0.50469  0.00145  0.32337  Biso   1.000  Pb
  Pb5      1.0000 0.49531  0.99855  0.67663  Biso   1.000  Pb
  Pb6      1.0000 0.49531  0.00145  0.17663  Biso   1.000  Pb
  Pb7      1.0000 0.00469  0.49855  0.67663  Biso   1.000  Pb
  Pb8      1.0000 0.00469  0.50145  0.17663  Biso   1.000  Pb
  Nb1      1.0000 0.00000  1.00000  0.75000  Biso   1.000  Nb
  Nb2      1.0000 0.00000  0.00000  0.25000  Biso   1.000  Nb
  Nb3      1.0000 0.50000  0.50000  0.75000  Biso   1.000  Nb
  Nb4      1.0000 0.50000  0.50000  0.25000  Biso   1.000  Nb
  Ta1      1.0000 0.00105  0.99398  0.89358  Biso   1.000  Ta
  Ta2      1.0000 0.00105  0.00602  0.39358  Biso   1.000  Ta
  Ta3      1.0000 0.49895  0.49398  0.89358  Biso   1.000  Ta
  Ta4      1.0000 0.49895  0.50602  0.39358  Biso   1.000  Ta
  Ta5      1.0000 0.99895  0.99398  0.60642  Biso   1.000  Ta
  Ta6      1.0000 0.99895  0.00602  0.10642  Biso   1.000  Ta
  Ta7      1.0000 0.50105  0.49398  0.60642  Biso   1.000  Ta
  Ta8      1.0000 0.50105  0.50602  0.10642  Biso   1.000  Ta
  O1       1.0000 0.24832  0.74442  0.75330  Biso   1.000  O
  O2       1.0000 0.25168  0.75558  0.25330  Biso   1.000  O
  O3       1.0000 0.74832  0.24442  0.74670  Biso   1.000  O
  O4       1.0000 0.75168  0.25558  0.24670  Biso   1.000  O
  O5       1.0000 0.25168  0.24442  0.75330  Biso   1.000  O
  O6       1.0000 0.24832  0.25558  0.25330  Biso   1.000  O
  O7       1.0000 0.75168  0.74442  0.74670  Biso   1.000  O
  O8       1.0000 0.74832  0.75558  0.24670  Biso   1.000  O
  O9       1.0000 0.99369  0.99549  0.81512  Biso   1.000  O
  O10      1.0000 0.99369  0.00451  0.31512  Biso   1.000  O
  O11      1.0000 0.50631  0.49549  0.81512  Biso   1.000  O
  O12      1.0000 0.50631  0.50451  0.31512  Biso   1.000  O
  O13      1.0000 0.00631  0.99549  0.68488  Biso   1.000  O
  O14      1.0000 0.00631  0.00451  0.18488  Biso   1.000  O
  O15      1.0000 0.49369  0.49549  0.68488  Biso   1.000  O
  O16      1.0000 0.49369  0.50451  0.18488  Biso   1.000  O
  O17      1.0000 0.24980  0.74738  0.87933  Biso   1.000  O
  O18      1.0000 0.25020  0.75262  0.37933  Biso   1.000  O
  O19      1.0000 0.74980  0.24738  0.88303  Biso   1.000  O
  O20      1.0000 0.75020  0.25262  0.38303  Biso   1.000  O
  O21      1.0000 0.74980  0.24738  0.62067  Biso   1.000  O
  O22      1.0000 0.75020  0.25262  0.12067  Biso   1.000  O
  O23      1.0000 0.24980  0.74738  0.61697  Biso   1.000  O
  O24      1.0000 0.25020  0.75262  0.11697  Biso   1.000  O
  O25      1.0000 0.25020  0.24738  0.61697  Biso   1.000  O
  O26      1.0000 0.24980  0.25262  0.11697  Biso   1.000  O
  O27      1.0000 0.75020  0.74738  0.62067  Biso   1.000  O
  O28      1.0000 0.74980  0.75262  0.12067  Biso   1.000  O
  O29      1.0000 0.25020  0.24738  0.87933  Biso   1.000  O
  O30      1.0000 0.24980  0.25262  0.37933  Biso   1.000  O
  O31      1.0000 0.75020  0.74738  0.88303  Biso   1.000  O
  O32      1.0000 0.74980  0.75262  0.38303  Biso   1.000  O
  O33      1.0000 0.00373  0.99753  0.95187  Biso   1.000  O
  O34      1.0000 0.00373  0.00247  0.45187  Biso   1.000  O
  O35      1.0000 0.49627  0.49753  0.95187  Biso   1.000  O
  O36      1.0000 0.49627  0.50247  0.45187  Biso   1.000  O
  O37      1.0000 0.99627  0.99753  0.54813  Biso   1.000  O
  O38      1.0000 0.99627  0.00247  0.04813  Biso   1.000  O
  O39      1.0000 0.50373  0.49753  0.54813  Biso   1.000  O
  O40      1.0000 0.50373  0.50247  0.04813  Biso   1.000  O
