data_image0
_cell_length_a       16.1647
_cell_length_b       16.1647
_cell_length_c       7.8528
_cell_angle_alpha    104.058
_cell_angle_beta     104.058
_cell_angle_gamma    28.1154

_symmetry_space_group_name_H-M    "P 1"
_symmetry_int_tables_number       1

loop_
  _symmetry_equiv_pos_as_xyz
  'x, y, z'

loop_
  _atom_site_label
  _atom_site_occupancy
  _atom_site_fract_x
  _atom_site_fract_y
  _atom_site_fract_z
  _atom_site_thermal_displace_type
  _atom_site_B_iso_or_equiv
  _atom_site_type_symbol
  K1       1.0000 0.00000  0.00000  0.50000  Biso   1.000  K
  K2       1.0000 0.50000  0.50000  0.00000  Biso   1.000  K
  K3       1.0000 0.50000  0.50000  0.50000  Biso   1.000  K
  K4       1.0000 0.00000  0.00000  0.00000  Biso   1.000  K
  Pb1      1.0000 0.17837  0.17837  0.68306  Biso   1.000  Pb
  Pb2      1.0000 0.67489  0.67489  0.17958  Biso   1.000  Pb
  Pb3      1.0000 0.67663  0.67663  0.67194  Biso   1.000  Pb
  Pb4      1.0000 0.17663  0.17663  0.17194  Biso   1.000  Pb
  Pb5      1.0000 0.82337  0.82337  0.82806  Biso   1.000  Pb
  Pb6      1.0000 0.32337  0.32337  0.32806  Biso   1.000  Pb
  Pb7      1.0000 0.32511  0.32511  0.82042  Biso   1.000  Pb
  Pb8      1.0000 0.82163  0.82163  0.31694  Biso   1.000  Pb
  Nb1      1.0000 0.50000  0.00000  0.50000  Biso   1.000  Nb
  Nb2      1.0000 0.00000  0.50000  0.00000  Biso   1.000  Nb
  Nb3      1.0000 0.00000  0.50000  0.50000  Biso   1.000  Nb
  Nb4      1.0000 0.50000  0.00000  0.00000  Biso   1.000  Nb
  Ta1      1.0000 0.35520  0.85764  0.35659  Biso   1.000  Ta
  Ta2      1.0000 0.85554  0.35730  0.85625  Biso   1.000  Ta
  Ta3      1.0000 0.85764  0.35520  0.35659  Biso   1.000  Ta
  Ta4      1.0000 0.35730  0.85554  0.85625  Biso   1.000  Ta
  Ta5      1.0000 0.64480  0.14236  0.64341  Biso   1.000  Ta
  Ta6      1.0000 0.14446  0.64270  0.14375  Biso   1.000  Ta
  Ta7      1.0000 0.14236  0.64480  0.64341  Biso   1.000  Ta
  Ta8      1.0000 0.64270  0.14446  0.14375  Biso   1.000  Ta
  O1       1.0000 0.23694  0.23694  0.48694  Biso   1.000  O
  O2       1.0000 0.74985  0.74985  0.99985  Biso   1.000  O
  O3       1.0000 0.76306  0.76306  0.51306  Biso   1.000  O
  O4       1.0000 0.25015  0.25015  0.00015  Biso   1.000  O
  O5       1.0000 0.50646  0.00646  0.25646  Biso   1.000  O
  O6       1.0000 0.99354  0.49354  0.74354  Biso   1.000  O
  O7       1.0000 0.00646  0.50646  0.25646  Biso   1.000  O
  O8       1.0000 0.49354  0.99354  0.74354  Biso   1.000  O
  O9       1.0000 0.44623  0.92353  0.42984  Biso   1.000  O
  O10      1.0000 0.93615  0.43361  0.93992  Biso   1.000  O
  O11      1.0000 0.92353  0.44623  0.42984  Biso   1.000  O
  O12      1.0000 0.43361  0.93615  0.93992  Biso   1.000  O
  O13      1.0000 0.55377  0.07647  0.57016  Biso   1.000  O
  O14      1.0000 0.06385  0.56639  0.06008  Biso   1.000  O
  O15      1.0000 0.07647  0.55377  0.57016  Biso   1.000  O
  O16      1.0000 0.56639  0.06385  0.06008  Biso   1.000  O
  O17      1.0000 0.12531  0.12531  0.37593  Biso   1.000  O
  O18      1.0000 0.61975  0.61975  0.86913  Biso   1.000  O
  O19      1.0000 0.61233  0.61233  0.36294  Biso   1.000  O
  O20      1.0000 0.11789  0.11789  0.86728  Biso   1.000  O
  O21      1.0000 0.87469  0.87469  0.62407  Biso   1.000  O
  O22      1.0000 0.38025  0.38025  0.13087  Biso   1.000  O
  O23      1.0000 0.38767  0.38767  0.63706  Biso   1.000  O
  O24      1.0000 0.88211  0.88211  0.13272  Biso   1.000  O
  O25      1.0000 0.62901  0.12778  0.37840  Biso   1.000  O
  O26      1.0000 0.13335  0.63458  0.88396  Biso   1.000  O
  O27      1.0000 0.12778  0.62901  0.37840  Biso   1.000  O
  O28      1.0000 0.63458  0.13335  0.88396  Biso   1.000  O
  O29      1.0000 0.36542  0.86665  0.11604  Biso   1.000  O
  O30      1.0000 0.87222  0.37099  0.62160  Biso   1.000  O
  O31      1.0000 0.86665  0.36542  0.11604  Biso   1.000  O
  O32      1.0000 0.37099  0.87222  0.62160  Biso   1.000  O
  O33      1.0000 0.29335  0.80291  0.29918  Biso   1.000  O
  O34      1.0000 0.79544  0.30082  0.79708  Biso   1.000  O
  O35      1.0000 0.80291  0.29335  0.29918  Biso   1.000  O
  O36      1.0000 0.30082  0.79544  0.79708  Biso   1.000  O
  O37      1.0000 0.70665  0.19709  0.70082  Biso   1.000  O
  O38      1.0000 0.20456  0.69918  0.20292  Biso   1.000  O
  O39      1.0000 0.19709  0.70665  0.70082  Biso   1.000  O
  O40      1.0000 0.69918  0.20456  0.20292  Biso   1.000  O
