data_image0
_cell_length_a       16.1647
_cell_length_b       16.1647
_cell_length_c       16.1647
_cell_angle_alpha    151.885
_cell_angle_beta     151.885
_cell_angle_gamma    40.1819

_symmetry_space_group_name_H-M    "P 1"
_symmetry_int_tables_number       1

loop_
  _symmetry_equiv_pos_as_xyz
  'x, y, z'

loop_
  _atom_site_label
  _atom_site_occupancy
  _atom_site_fract_x
  _atom_site_fract_y
  _atom_site_fract_z
  _atom_site_thermal_displace_type
  _atom_site_B_iso_or_equiv
  _atom_site_type_symbol
  K1       1.0000 0.00000  0.00000  0.50000  Biso   1.000  K
  K2       1.0000 0.50000  0.50000  0.50000  Biso   1.000  K
  K3       1.0000 0.50000  0.00000  0.00000  Biso   1.000  K
  K4       1.0000 0.00000  0.50000  0.00000  Biso   1.000  K
  Pb1      1.0000 0.82250  0.81781  0.49531  Biso   1.000  Pb
  Pb2      1.0000 0.32424  0.31955  0.49531  Biso   1.000  Pb
  Pb3      1.0000 0.32424  0.82893  0.00469  Biso   1.000  Pb
  Pb4      1.0000 0.82250  0.32719  0.00469  Biso   1.000  Pb
  Pb5      1.0000 0.17750  0.67281  0.99531  Biso   1.000  Pb
  Pb6      1.0000 0.67576  0.17107  0.99531  Biso   1.000  Pb
  Pb7      1.0000 0.67576  0.68045  0.50469  Biso   1.000  Pb
  Pb8      1.0000 0.17750  0.18219  0.50469  Biso   1.000  Pb
  Nb1      1.0000 0.00000  0.00000  0.00000  Biso   1.000  Nb
  Nb2      1.0000 0.50000  0.50000  0.00000  Biso   1.000  Nb
  Nb3      1.0000 0.50000  0.00000  0.50000  Biso   1.000  Nb
  Nb4      1.0000 1.00000  0.50000  0.50000  Biso   1.000  Nb
  Ta1      1.0000 0.14236  0.14358  0.99878  Biso   1.000  Ta
  Ta2      1.0000 0.64270  0.64358  0.99912  Biso   1.000  Ta
  Ta3      1.0000 0.64480  0.14358  0.50122  Biso   1.000  Ta
  Ta4      1.0000 0.14446  0.64358  0.50088  Biso   1.000  Ta
  Ta5      1.0000 0.85764  0.85642  0.00122  Biso   1.000  Ta
  Ta6      1.0000 0.35730  0.35642  0.00088  Biso   1.000  Ta
  Ta7      1.0000 0.35520  0.85642  0.49878  Biso   1.000  Ta
  Ta8      1.0000 0.85554  0.35642  0.49912  Biso   1.000  Ta
  O1       1.0000 0.76306  0.01306  0.75000  Biso   1.000  O
  O2       1.0000 0.25015  0.50015  0.75000  Biso   1.000  O
  O3       1.0000 0.23694  0.98694  0.25000  Biso   1.000  O
  O4       1.0000 0.74985  0.49985  0.25000  Biso   1.000  O
  O5       1.0000 0.00000  0.25000  0.25000  Biso   1.000  O
  O6       1.0000 0.50000  0.75000  0.25000  Biso   1.000  O
  O7       1.0000 0.50000  0.25000  0.75000  Biso   1.000  O
  O8       1.0000 1.00000  0.75000  0.75000  Biso   1.000  O
  O9       1.0000 0.07647  0.06512  0.01135  Biso   1.000  O
  O10      1.0000 0.56639  0.56512  0.00127  Biso   1.000  O
  O11      1.0000 0.55377  0.06512  0.48865  Biso   1.000  O
  O12      1.0000 0.06385  0.56512  0.49873  Biso   1.000  O
  O13      1.0000 0.92353  0.93488  0.98865  Biso   1.000  O
  O14      1.0000 0.43361  0.43488  0.99873  Biso   1.000  O
  O15      1.0000 0.44623  0.93488  0.51135  Biso   1.000  O
  O16      1.0000 0.93615  0.43488  0.50127  Biso   1.000  O
  O17      1.0000 0.87469  0.12469  0.75000  Biso   1.000  O
  O18      1.0000 0.38025  0.63025  0.75000  Biso   1.000  O
  O19      1.0000 0.38767  0.13767  0.25000  Biso   1.000  O
  O20      1.0000 0.88211  0.63211  0.25000  Biso   1.000  O
  O21      1.0000 0.12531  0.87531  0.25000  Biso   1.000  O
  O22      1.0000 0.61975  0.36975  0.25000  Biso   1.000  O
  O23      1.0000 0.61233  0.86233  0.75000  Biso   1.000  O
  O24      1.0000 0.11789  0.36789  0.75000  Biso   1.000  O
  O25      1.0000 0.86944  0.11882  0.25062  Biso   1.000  O
  O26      1.0000 0.36820  0.61882  0.24938  Biso   1.000  O
  O27      1.0000 0.36820  0.11882  0.74938  Biso   1.000  O
  O28      1.0000 0.86944  0.61882  0.75062  Biso   1.000  O
  O29      1.0000 0.13056  0.38118  0.24938  Biso   1.000  O
  O30      1.0000 0.63180  0.88118  0.25062  Biso   1.000  O
  O31      1.0000 0.63180  0.38118  0.75062  Biso   1.000  O
  O32      1.0000 0.13056  0.88118  0.74938  Biso   1.000  O
  O33      1.0000 0.19709  0.20187  0.99522  Biso   1.000  O
  O34      1.0000 0.69918  0.70187  0.99731  Biso   1.000  O
  O35      1.0000 0.70665  0.20187  0.50478  Biso   1.000  O
  O36      1.0000 0.20456  0.70187  0.50269  Biso   1.000  O
  O37      1.0000 0.80291  0.79813  0.00478  Biso   1.000  O
  O38      1.0000 0.30082  0.29813  0.00269  Biso   1.000  O
  O39      1.0000 0.29335  0.79813  0.49522  Biso   1.000  O
  O40      1.0000 0.79544  0.29813  0.49731  Biso   1.000  O
