data_image0
_cell_length_a       16.1647
_cell_length_b       16.1647
_cell_length_c       16.1647
_cell_angle_alpha    151.885
_cell_angle_beta     40.1819
_cell_angle_gamma    151.885

_symmetry_space_group_name_H-M    "P 1"
_symmetry_int_tables_number       1

loop_
  _symmetry_equiv_pos_as_xyz
  'x, y, z'

loop_
  _atom_site_label
  _atom_site_occupancy
  _atom_site_fract_x
  _atom_site_fract_y
  _atom_site_fract_z
  _atom_site_thermal_displace_type
  _atom_site_B_iso_or_equiv
  _atom_site_type_symbol
  K1       1.0000 0.51129  0.01129  0.50000  Biso   1.000  K
  K2       1.0000 0.01129  0.01129  0.00000  Biso   1.000  K
  K3       1.0000 0.98871  0.48871  0.50000  Biso   1.000  K
  K4       1.0000 0.48871  0.48871  0.00000  Biso   1.000  K
  Pb1      1.0000 0.31790  0.99627  0.32163  Biso   1.000  Pb
  Pb2      1.0000 0.82138  0.99627  0.82511  Biso   1.000  Pb
  Pb3      1.0000 0.82710  0.50373  0.32337  Biso   1.000  Pb
  Pb4      1.0000 0.32710  0.50373  0.82337  Biso   1.000  Pb
  Pb5      1.0000 0.68036  0.50373  0.17663  Biso   1.000  Pb
  Pb6      1.0000 0.18036  0.50373  0.67663  Biso   1.000  Pb
  Pb7      1.0000 0.17116  0.99627  0.17489  Biso   1.000  Pb
  Pb8      1.0000 0.67464  0.99627  0.67837  Biso   1.000  Pb
  Nb1      1.0000 0.00000  0.99991  0.49991  Biso   1.000  Nb
  Nb2      1.0000 0.50000  0.99991  0.99991  Biso   1.000  Nb
  Nb3      1.0000 0.50000  0.50009  0.50009  Biso   1.000  Nb
  Nb4      1.0000 0.00000  0.50009  0.00009  Biso   1.000  Nb
  Ta1      1.0000 0.14375  0.00175  0.64516  Biso   1.000  Ta
  Ta2      1.0000 0.64341  0.00175  0.14549  Biso   1.000  Ta
  Ta3      1.0000 0.64341  0.49792  0.64167  Biso   1.000  Ta
  Ta4      1.0000 0.14375  0.49859  0.14200  Biso   1.000  Ta
  Ta5      1.0000 0.85625  0.00175  0.35833  Biso   1.000  Ta
  Ta6      1.0000 0.35659  0.00175  0.85800  Biso   1.000  Ta
  Ta7      1.0000 0.35659  0.49859  0.35484  Biso   1.000  Ta
  Ta8      1.0000 0.85625  0.49792  0.85451  Biso   1.000  Ta
  O1       1.0000 0.25646  0.25000  0.50646  Biso   1.000  O
  O2       1.0000 0.74354  0.25000  0.99354  Biso   1.000  O
  O3       1.0000 0.74354  0.75000  0.49354  Biso   1.000  O
  O4       1.0000 0.25646  0.75000  0.00646  Biso   1.000  O
  O5       1.0000 0.99354  0.25000  0.74354  Biso   1.000  O
  O6       1.0000 0.50646  0.25000  0.25646  Biso   1.000  O
  O7       1.0000 0.49354  0.75000  0.74354  Biso   1.000  O
  O8       1.0000 0.00646  0.75000  0.25646  Biso   1.000  O
  O9       1.0000 0.06008  0.99827  0.56843  Biso   1.000  O
  O10      1.0000 0.57016  0.99827  0.05835  Biso   1.000  O
  O11      1.0000 0.57016  0.51181  0.57189  Biso   1.000  O
  O12      1.0000 0.06008  0.49166  0.06181  Biso   1.000  O
  O13      1.0000 0.93992  0.99827  0.42811  Biso   1.000  O
  O14      1.0000 0.42984  0.99827  0.93819  Biso   1.000  O
  O15      1.0000 0.42984  0.49166  0.43157  Biso   1.000  O
  O16      1.0000 0.93992  0.51181  0.94165  Biso   1.000  O
  O17      1.0000 0.37840  0.24938  0.62778  Biso   1.000  O
  O18      1.0000 0.88396  0.25062  0.13458  Biso   1.000  O
  O19      1.0000 0.88396  0.74938  0.63335  Biso   1.000  O
  O20      1.0000 0.37840  0.75062  0.12901  Biso   1.000  O
  O21      1.0000 0.62160  0.75062  0.37222  Biso   1.000  O
  O22      1.0000 0.11604  0.74938  0.86542  Biso   1.000  O
  O23      1.0000 0.11604  0.25062  0.36665  Biso   1.000  O
  O24      1.0000 0.62160  0.24938  0.87099  Biso   1.000  O
  O25      1.0000 0.87359  0.24938  0.62421  Biso   1.000  O
  O26      1.0000 0.36926  0.25062  0.11864  Biso   1.000  O
  O27      1.0000 0.36961  0.75062  0.61900  Biso   1.000  O
  O28      1.0000 0.86281  0.74938  0.11343  Biso   1.000  O
  O29      1.0000 0.13197  0.25062  0.88136  Biso   1.000  O
  O30      1.0000 0.62517  0.24938  0.37579  Biso   1.000  O
  O31      1.0000 0.63595  0.74938  0.88657  Biso   1.000  O
  O32      1.0000 0.13162  0.75062  0.38100  Biso   1.000  O
  O33      1.0000 0.20292  0.00469  0.70551  Biso   1.000  O
  O34      1.0000 0.70082  0.00469  0.20761  Biso   1.000  O
  O35      1.0000 0.70082  0.49321  0.69613  Biso   1.000  O
  O36      1.0000 0.20292  0.49741  0.19823  Biso   1.000  O
  O37      1.0000 0.79708  0.00469  0.30387  Biso   1.000  O
  O38      1.0000 0.29918  0.00469  0.80177  Biso   1.000  O
  O39      1.0000 0.29918  0.49741  0.29449  Biso   1.000  O
  O40      1.0000 0.79708  0.49321  0.79239  Biso   1.000  O
