data_image0
_cell_length_a       5.55277
_cell_length_b       15.1811
_cell_length_c       5.55277
_cell_angle_alpha    90
_cell_angle_beta     90
_cell_angle_gamma    90

_symmetry_space_group_name_H-M    "P 1"
_symmetry_int_tables_number       1

loop_
  _symmetry_equiv_pos_as_xyz
  'x, y, z'

loop_
  _atom_site_label
  _atom_site_occupancy
  _atom_site_fract_x
  _atom_site_fract_y
  _atom_site_fract_z
  _atom_site_thermal_displace_type
  _atom_site_B_iso_or_equiv
  _atom_site_type_symbol
  K1       1.0000 0.01129  0.50000  0.50000  Biso   1.000  K
  K2       1.0000 0.48871  0.50000  0.00000  Biso   1.000  K
  Pb1      1.0000 0.99368  0.85326  0.50259  Biso   1.000  Pb
  Pb2      1.0000 0.50113  0.85326  0.00259  Biso   1.000  Pb
  Pb3      1.0000 0.50113  0.14674  0.00259  Biso   1.000  Pb
  Pb4      1.0000 0.99368  0.14674  0.50259  Biso   1.000  Pb
  Nb1      1.0000 0.99739  0.00000  0.00252  Biso   1.000  Nb
  Nb2      1.0000 0.49757  0.00000  0.50252  Biso   1.000  Nb
  Ta1      1.0000 0.00358  0.71284  0.99817  Biso   1.000  Ta
  Ta2      1.0000 0.50009  0.71284  0.49817  Biso   1.000  Ta
  Ta3      1.0000 0.00358  0.28716  0.99817  Biso   1.000  Ta
  Ta4      1.0000 0.50009  0.28716  0.49817  Biso   1.000  Ta
  O1       1.0000 0.25297  0.00000  0.74703  Biso   1.000  O
  O2       1.0000 0.75297  0.00000  0.24703  Biso   1.000  O
  O3       1.0000 0.25628  0.00000  0.24372  Biso   1.000  O
  O4       1.0000 0.75628  0.00000  0.74372  Biso   1.000  O
  O5       1.0000 0.00173  0.86976  0.99654  Biso   1.000  O
  O6       1.0000 0.50519  0.86976  0.49654  Biso   1.000  O
  O7       1.0000 0.00173  0.13024  0.99654  Biso   1.000  O
  O8       1.0000 0.50519  0.13024  0.49654  Biso   1.000  O
  O9       1.0000 0.25146  0.74025  0.74854  Biso   1.000  O
  O10      1.0000 0.75146  0.73503  0.24854  Biso   1.000  O
  O11      1.0000 0.75146  0.26497  0.24854  Biso   1.000  O
  O12      1.0000 0.25146  0.25975  0.74854  Biso   1.000  O
  O13      1.0000 0.25188  0.25975  0.24812  Biso   1.000  O
  O14      1.0000 0.75188  0.26497  0.74812  Biso   1.000  O
  O15      1.0000 0.25188  0.74025  0.24812  Biso   1.000  O
  O16      1.0000 0.75188  0.73503  0.74812  Biso   1.000  O
  O17      1.0000 0.00580  0.59626  0.99889  Biso   1.000  O
  O18      1.0000 0.49642  0.59626  0.49889  Biso   1.000  O
  O19      1.0000 0.00580  0.40374  0.99889  Biso   1.000  O
  O20      1.0000 0.49642  0.40374  0.49889  Biso   1.000  O
