data_image0
_cell_length_a       16.1647
_cell_length_b       16.1647
_cell_length_c       16.1647
_cell_angle_alpha    40.1819
_cell_angle_beta     151.885
_cell_angle_gamma    151.885

_symmetry_space_group_name_H-M    "P 1"
_symmetry_int_tables_number       1

loop_
  _symmetry_equiv_pos_as_xyz
  'x, y, z'

loop_
  _atom_site_label
  _atom_site_occupancy
  _atom_site_fract_x
  _atom_site_fract_y
  _atom_site_fract_z
  _atom_site_thermal_displace_type
  _atom_site_B_iso_or_equiv
  _atom_site_type_symbol
  K1       1.0000 0.23871  0.48871  0.75000  Biso   1.000  K
  K2       1.0000 0.23871  0.98871  0.25000  Biso   1.000  K
  K3       1.0000 0.76129  0.01129  0.75000  Biso   1.000  K
  K4       1.0000 0.76129  0.51129  0.25000  Biso   1.000  K
  Pb1      1.0000 0.25373  0.32623  0.57250  Biso   1.000  Pb
  Pb2      1.0000 0.25373  0.82797  0.07424  Biso   1.000  Pb
  Pb3      1.0000 0.74627  0.82051  0.57424  Biso   1.000  Pb
  Pb4      1.0000 0.74627  0.31877  0.07250  Biso   1.000  Pb
  Pb5      1.0000 0.74627  0.67377  0.42750  Biso   1.000  Pb
  Pb6      1.0000 0.74627  0.17203  0.92576  Biso   1.000  Pb
  Pb7      1.0000 0.25373  0.17949  0.42576  Biso   1.000  Pb
  Pb8      1.0000 0.25373  0.68123  0.92750  Biso   1.000  Pb
  Nb1      1.0000 0.74991  0.50000  0.74991  Biso   1.000  Nb
  Nb2      1.0000 0.74991  0.00000  0.24991  Biso   1.000  Nb
  Nb3      1.0000 0.25009  0.00000  0.75009  Biso   1.000  Nb
  Nb4      1.0000 0.25009  0.50000  0.25009  Biso   1.000  Nb
  Ta1      1.0000 0.75158  0.64341  0.89533  Biso   1.000  Ta
  Ta2      1.0000 0.75191  0.14375  0.39533  Biso   1.000  Ta
  Ta3      1.0000 0.24842  0.14375  0.89183  Biso   1.000  Ta
  Ta4      1.0000 0.24809  0.64341  0.39183  Biso   1.000  Ta
  Ta5      1.0000 0.75191  0.35659  0.60817  Biso   1.000  Ta
  Ta6      1.0000 0.75158  0.85625  0.10817  Biso   1.000  Ta
  Ta7      1.0000 0.24809  0.85625  0.60467  Biso   1.000  Ta
  Ta8      1.0000 0.24842  0.35659  0.10467  Biso   1.000  Ta
  O1       1.0000 0.50000  0.25646  0.75646  Biso   1.000  O
  O2       1.0000 0.50000  0.74354  0.24354  Biso   1.000  O
  O3       1.0000 0.00000  0.74354  0.74354  Biso   1.000  O
  O4       1.0000 1.00000  0.25646  0.25646  Biso   1.000  O
  O5       1.0000 0.00000  0.50000  0.00000  Biso   1.000  O
  O6       1.0000 0.00000  0.00000  0.50000  Biso   1.000  O
  O7       1.0000 0.50000  0.00000  0.00000  Biso   1.000  O
  O8       1.0000 0.50000  0.50000  0.50000  Biso   1.000  O
  O9       1.0000 0.75331  0.57016  0.81339  Biso   1.000  O
  O10      1.0000 0.74323  0.06008  0.31339  Biso   1.000  O
  O11      1.0000 0.24669  0.06008  0.81685  Biso   1.000  O
  O12      1.0000 0.25677  0.57016  0.31685  Biso   1.000  O
  O13      1.0000 0.74323  0.42984  0.68315  Biso   1.000  O
  O14      1.0000 0.75331  0.93992  0.18315  Biso   1.000  O
  O15      1.0000 0.25677  0.93992  0.68661  Biso   1.000  O
  O16      1.0000 0.24669  0.42984  0.18661  Biso   1.000  O
  O17      1.0000 0.50000  0.37840  0.87840  Biso   1.000  O
  O18      1.0000 0.50000  0.88396  0.38396  Biso   1.000  O
  O19      1.0000 1.00000  0.88396  0.88396  Biso   1.000  O
  O20      1.0000 1.00000  0.37840  0.37840  Biso   1.000  O
  O21      1.0000 1.00000  0.62160  0.62160  Biso   1.000  O
  O22      1.0000 0.00000  0.11604  0.11604  Biso   1.000  O
  O23      1.0000 0.50000  0.11604  0.61604  Biso   1.000  O
  O24      1.0000 0.50000  0.62160  0.12160  Biso   1.000  O
  O25      1.0000 0.00062  0.37204  0.87143  Biso   1.000  O
  O26      1.0000 0.99938  0.87081  0.37143  Biso   1.000  O
  O27      1.0000 0.49938  0.86560  0.86621  Biso   1.000  O
  O28      1.0000 0.50062  0.36683  0.36621  Biso   1.000  O
  O29      1.0000 0.99938  0.62796  0.12857  Biso   1.000  O
  O30      1.0000 0.00062  0.12919  0.62857  Biso   1.000  O
  O31      1.0000 0.50062  0.13440  0.13379  Biso   1.000  O
  O32      1.0000 0.49938  0.63317  0.63379  Biso   1.000  O
  O33      1.0000 0.75364  0.70082  0.95656  Biso   1.000  O
  O34      1.0000 0.75574  0.20292  0.45656  Biso   1.000  O
  O35      1.0000 0.24636  0.20292  0.94718  Biso   1.000  O
  O36      1.0000 0.24426  0.70082  0.44718  Biso   1.000  O
  O37      1.0000 0.75574  0.29918  0.55282  Biso   1.000  O
  O38      1.0000 0.75364  0.79708  0.05282  Biso   1.000  O
  O39      1.0000 0.24426  0.79708  0.54344  Biso   1.000  O
  O40      1.0000 0.24636  0.29918  0.04344  Biso   1.000  O
