data_image0
_cell_length_a       16.1647
_cell_length_b       16.1647
_cell_length_c       16.1647
_cell_angle_alpha    151.885
_cell_angle_beta     151.885
_cell_angle_gamma    40.1819

_symmetry_space_group_name_H-M    "P 1"
_symmetry_int_tables_number       1

loop_
  _symmetry_equiv_pos_as_xyz
  'x, y, z'

loop_
  _atom_site_label
  _atom_site_occupancy
  _atom_site_fract_x
  _atom_site_fract_y
  _atom_site_fract_z
  _atom_site_thermal_displace_type
  _atom_site_B_iso_or_equiv
  _atom_site_type_symbol
  K1       1.0000 0.48939  0.73871  0.22810  Biso   1.000  K
  K2       1.0000 0.01061  0.23871  0.24931  Biso   1.000  K
  K3       1.0000 0.51061  0.26129  0.77190  Biso   1.000  K
  K4       1.0000 0.98939  0.76129  0.75069  Biso   1.000  K
  Pb1      1.0000 0.67659  0.93036  0.25368  Biso   1.000  Pb
  Pb2      1.0000 0.17667  0.43036  0.25377  Biso   1.000  Pb
  Pb3      1.0000 0.67667  0.42290  0.74632  Biso   1.000  Pb
  Pb4      1.0000 0.17659  0.92290  0.74623  Biso   1.000  Pb
  Pb5      1.0000 0.82333  0.56964  0.74623  Biso   1.000  Pb
  Pb6      1.0000 0.32341  0.06964  0.74632  Biso   1.000  Pb
  Pb7      1.0000 0.82341  0.07710  0.25377  Biso   1.000  Pb
  Pb8      1.0000 0.32333  0.57710  0.25368  Biso   1.000  Pb
  Nb1      1.0000 0.99991  0.25000  0.74991  Biso   1.000  Nb
  Nb2      1.0000 0.49991  0.75000  0.74991  Biso   1.000  Nb
  Nb3      1.0000 0.00009  0.75000  0.25009  Biso   1.000  Nb
  Nb4      1.0000 0.50009  0.25000  0.25009  Biso   1.000  Nb
  Ta1      1.0000 0.85817  0.10642  0.75175  Biso   1.000  Ta
  Ta2      1.0000 0.35817  0.60642  0.75175  Biso   1.000  Ta
  Ta3      1.0000 0.85467  0.60642  0.24825  Biso   1.000  Ta
  Ta4      1.0000 0.35467  0.10642  0.24825  Biso   1.000  Ta
  Ta5      1.0000 0.14533  0.39358  0.75175  Biso   1.000  Ta
  Ta6      1.0000 0.64533  0.89358  0.75175  Biso   1.000  Ta
  Ta7      1.0000 0.14183  0.89358  0.24825  Biso   1.000  Ta
  Ta8      1.0000 0.64183  0.39358  0.24825  Biso   1.000  Ta
  O1       1.0000 0.00000  0.00000  0.50000  Biso   1.000  O
  O2       1.0000 0.50000  0.50000  0.50000  Biso   1.000  O
  O3       1.0000 0.00000  0.50000  0.00000  Biso   1.000  O
  O4       1.0000 0.50000  0.00000  0.00000  Biso   1.000  O
  O5       1.0000 0.25000  0.25000  0.00000  Biso   1.000  O
  O6       1.0000 0.75000  0.75000  0.00000  Biso   1.000  O
  O7       1.0000 0.25000  0.75000  0.50000  Biso   1.000  O
  O8       1.0000 0.75000  0.25000  0.50000  Biso   1.000  O
  O9       1.0000 0.93315  0.18488  0.74827  Biso   1.000  O
  O10      1.0000 0.43315  0.68488  0.74827  Biso   1.000  O
  O11      1.0000 0.93661  0.68488  0.25173  Biso   1.000  O
  O12      1.0000 0.43661  0.18488  0.25173  Biso   1.000  O
  O13      1.0000 0.06339  0.31512  0.74827  Biso   1.000  O
  O14      1.0000 0.56339  0.81512  0.74827  Biso   1.000  O
  O15      1.0000 0.06685  0.81512  0.25173  Biso   1.000  O
  O16      1.0000 0.56685  0.31512  0.25173  Biso   1.000  O
  O17      1.0000 0.86888  0.86882  0.50006  Biso   1.000  O
  O18      1.0000 0.36876  0.36882  0.49994  Biso   1.000  O
  O19      1.0000 0.86876  0.36882  0.99994  Biso   1.000  O
  O20      1.0000 0.36888  0.86882  0.00006  Biso   1.000  O
  O21      1.0000 0.13124  0.63118  0.00006  Biso   1.000  O
  O22      1.0000 0.63112  0.13118  0.99994  Biso   1.000  O
  O23      1.0000 0.13112  0.13118  0.49994  Biso   1.000  O
  O24      1.0000 0.63124  0.63118  0.50006  Biso   1.000  O
  O25      1.0000 0.37857  0.37857  0.00000  Biso   1.000  O
  O26      1.0000 0.87857  0.87857  0.00000  Biso   1.000  O
  O27      1.0000 0.38379  0.88379  0.50000  Biso   1.000  O
  O28      1.0000 0.88379  0.38379  0.50000  Biso   1.000  O
  O29      1.0000 0.12143  0.12143  0.00000  Biso   1.000  O
  O30      1.0000 0.62143  0.62143  0.00000  Biso   1.000  O
  O31      1.0000 0.11621  0.61621  0.50000  Biso   1.000  O
  O32      1.0000 0.61621  0.11621  0.50000  Biso   1.000  O
  O33      1.0000 0.80282  0.04813  0.75469  Biso   1.000  O
  O34      1.0000 0.30282  0.54813  0.75469  Biso   1.000  O
  O35      1.0000 0.79344  0.54813  0.24531  Biso   1.000  O
  O36      1.0000 0.29344  0.04813  0.24531  Biso   1.000  O
  O37      1.0000 0.20656  0.45187  0.75469  Biso   1.000  O
  O38      1.0000 0.70656  0.95187  0.75469  Biso   1.000  O
  O39      1.0000 0.19718  0.95187  0.24531  Biso   1.000  O
  O40      1.0000 0.69718  0.45187  0.24531  Biso   1.000  O
