data_image0
_cell_length_a       16.1647
_cell_length_b       16.1647
_cell_length_c       16.1647
_cell_angle_alpha    40.1819
_cell_angle_beta     151.885
_cell_angle_gamma    151.885

_symmetry_space_group_name_H-M    "P 1"
_symmetry_int_tables_number       1

loop_
  _symmetry_equiv_pos_as_xyz
  'x, y, z'

loop_
  _atom_site_label
  _atom_site_occupancy
  _atom_site_fract_x
  _atom_site_fract_y
  _atom_site_fract_z
  _atom_site_thermal_displace_type
  _atom_site_B_iso_or_equiv
  _atom_site_type_symbol
  K1       1.0000 0.23871  0.74757  0.00886  Biso   1.000  K
  K2       1.0000 0.23871  0.22985  0.49114  Biso   1.000  K
  K3       1.0000 0.76129  0.25243  0.99114  Biso   1.000  K
  K4       1.0000 0.76129  0.77015  0.50886  Biso   1.000  K
  Pb1      1.0000 0.25373  0.57761  0.82388  Biso   1.000  Pb
  Pb2      1.0000 0.25373  0.07658  0.32286  Biso   1.000  Pb
  Pb3      1.0000 0.74627  0.06913  0.82286  Biso   1.000  Pb
  Pb4      1.0000 0.74627  0.57016  0.32388  Biso   1.000  Pb
  Pb5      1.0000 0.74627  0.92342  0.67714  Biso   1.000  Pb
  Pb6      1.0000 0.74627  0.42239  0.17612  Biso   1.000  Pb
  Pb7      1.0000 0.25373  0.42984  0.67612  Biso   1.000  Pb
  Pb8      1.0000 0.25373  0.93087  0.17714  Biso   1.000  Pb
  Nb1      1.0000 0.74964  0.74973  0.99991  Biso   1.000  Nb
  Nb2      1.0000 0.75018  0.25027  0.49991  Biso   1.000  Nb
  Nb3      1.0000 0.25036  0.25027  0.00009  Biso   1.000  Nb
  Nb4      1.0000 0.24982  0.74973  0.50009  Biso   1.000  Nb
  Ta1      1.0000 0.75253  0.89437  0.14533  Biso   1.000  Ta
  Ta2      1.0000 0.75096  0.39279  0.64533  Biso   1.000  Ta
  Ta3      1.0000 0.24747  0.39279  0.14183  Biso   1.000  Ta
  Ta4      1.0000 0.24904  0.89437  0.64183  Biso   1.000  Ta
  Ta5      1.0000 0.75253  0.60721  0.85817  Biso   1.000  Ta
  Ta6      1.0000 0.75096  0.10563  0.35817  Biso   1.000  Ta
  Ta7      1.0000 0.24747  0.10563  0.85467  Biso   1.000  Ta
  Ta8      1.0000 0.24904  0.60721  0.35467  Biso   1.000  Ta
  O1       1.0000 0.50000  0.50000  0.00000  Biso   1.000  O
  O2       1.0000 0.50000  0.00000  0.50000  Biso   1.000  O
  O3       1.0000 0.00000  0.00000  0.00000  Biso   1.000  O
  O4       1.0000 0.00000  0.50000  0.50000  Biso   1.000  O
  O5       1.0000 0.00011  0.75011  0.25000  Biso   1.000  O
  O6       1.0000 0.99989  0.24989  0.75000  Biso   1.000  O
  O7       1.0000 0.49989  0.24989  0.25000  Biso   1.000  O
  O8       1.0000 0.50011  0.75011  0.75000  Biso   1.000  O
  O9       1.0000 0.74737  0.81422  0.06339  Biso   1.000  O
  O10      1.0000 0.74917  0.31602  0.56339  Biso   1.000  O
  O11      1.0000 0.25263  0.31602  0.06685  Biso   1.000  O
  O12      1.0000 0.25083  0.81422  0.56685  Biso   1.000  O
  O13      1.0000 0.74737  0.68398  0.93315  Biso   1.000  O
  O14      1.0000 0.74917  0.18578  0.43315  Biso   1.000  O
  O15      1.0000 0.25263  0.18578  0.93661  Biso   1.000  O
  O16      1.0000 0.25083  0.68398  0.43661  Biso   1.000  O
  O17      1.0000 0.50000  0.63306  0.13306  Biso   1.000  O
  O18      1.0000 0.50000  0.12930  0.62930  Biso   1.000  O
  O19      1.0000 0.00000  0.12930  0.12930  Biso   1.000  O
  O20      1.0000 0.00000  0.63306  0.63306  Biso   1.000  O
  O21      1.0000 0.00000  0.87070  0.87070  Biso   1.000  O
  O22      1.0000 0.00000  0.36694  0.36694  Biso   1.000  O
  O23      1.0000 0.50000  0.36694  0.86694  Biso   1.000  O
  O24      1.0000 0.50000  0.87070  0.37070  Biso   1.000  O
  O25      1.0000 0.00020  0.62163  0.12143  Biso   1.000  O
  O26      1.0000 0.99980  0.12122  0.62143  Biso   1.000  O
  O27      1.0000 0.49980  0.11601  0.11621  Biso   1.000  O
  O28      1.0000 0.50020  0.61642  0.61621  Biso   1.000  O
  O29      1.0000 0.00020  0.87878  0.37857  Biso   1.000  O
  O30      1.0000 0.99980  0.37837  0.87857  Biso   1.000  O
  O31      1.0000 0.49980  0.38358  0.38379  Biso   1.000  O
  O32      1.0000 0.50020  0.88399  0.88379  Biso   1.000  O
  O33      1.0000 0.75811  0.95529  0.20656  Biso   1.000  O
  O34      1.0000 0.75127  0.44845  0.70656  Biso   1.000  O
  O35      1.0000 0.24189  0.44845  0.19718  Biso   1.000  O
  O36      1.0000 0.24873  0.95529  0.69718  Biso   1.000  O
  O37      1.0000 0.75811  0.55155  0.80282  Biso   1.000  O
  O38      1.0000 0.75127  0.04471  0.30282  Biso   1.000  O
  O39      1.0000 0.24189  0.04471  0.79344  Biso   1.000  O
  O40      1.0000 0.24873  0.55155  0.29344  Biso   1.000  O
