data_image0
_cell_length_a       16.1647
_cell_length_b       16.1647
_cell_length_c       16.1647
_cell_angle_alpha    40.1819
_cell_angle_beta     151.885
_cell_angle_gamma    151.885

_symmetry_space_group_name_H-M    "P 1"
_symmetry_int_tables_number       1

loop_
  _symmetry_equiv_pos_as_xyz
  'x, y, z'

loop_
  _atom_site_label
  _atom_site_occupancy
  _atom_site_fract_x
  _atom_site_fract_y
  _atom_site_fract_z
  _atom_site_thermal_displace_type
  _atom_site_B_iso_or_equiv
  _atom_site_type_symbol
  K1       1.0000 0.46750  0.48939  0.47810  Biso   1.000  K
  K2       1.0000 0.50992  0.01061  0.99931  Biso   1.000  K
  K3       1.0000 0.01129  0.51061  0.00069  Biso   1.000  K
  K4       1.0000 0.01129  0.98939  0.52190  Biso   1.000  K
  Pb1      1.0000 0.50364  0.67659  0.68031  Biso   1.000  Pb
  Pb2      1.0000 0.50382  0.17667  0.18040  Biso   1.000  Pb
  Pb3      1.0000 0.99627  0.67667  0.17286  Biso   1.000  Pb
  Pb4      1.0000 0.99627  0.17659  0.67295  Biso   1.000  Pb
  Pb5      1.0000 0.99627  0.82333  0.31969  Biso   1.000  Pb
  Pb6      1.0000 0.99627  0.32341  0.81960  Biso   1.000  Pb
  Pb7      1.0000 0.50382  0.82341  0.82714  Biso   1.000  Pb
  Pb8      1.0000 0.50364  0.32333  0.32705  Biso   1.000  Pb
  Nb1      1.0000 0.99991  0.99991  0.00000  Biso   1.000  Nb
  Nb2      1.0000 0.99991  0.49991  0.50000  Biso   1.000  Nb
  Nb3      1.0000 0.50009  0.00009  0.50000  Biso   1.000  Nb
  Nb4      1.0000 0.50009  0.50009  0.00000  Biso   1.000  Nb
  Ta1      1.0000 0.00175  0.85817  0.85642  Biso   1.000  Ta
  Ta2      1.0000 0.00175  0.35817  0.35642  Biso   1.000  Ta
  Ta3      1.0000 0.49825  0.85467  0.35642  Biso   1.000  Ta
  Ta4      1.0000 0.49825  0.35467  0.85642  Biso   1.000  Ta
  Ta5      1.0000 0.00175  0.14533  0.14358  Biso   1.000  Ta
  Ta6      1.0000 0.00175  0.64533  0.64358  Biso   1.000  Ta
  Ta7      1.0000 0.49825  0.14183  0.64358  Biso   1.000  Ta
  Ta8      1.0000 0.49825  0.64183  0.14358  Biso   1.000  Ta
  O1       1.0000 0.75000  0.00000  0.75000  Biso   1.000  O
  O2       1.0000 0.75000  0.50000  0.25000  Biso   1.000  O
  O3       1.0000 0.25000  0.00000  0.25000  Biso   1.000  O
  O4       1.0000 0.25000  0.50000  0.75000  Biso   1.000  O
  O5       1.0000 0.25000  0.25000  0.00000  Biso   1.000  O
  O6       1.0000 0.25000  0.75000  0.50000  Biso   1.000  O
  O7       1.0000 0.75000  0.25000  0.50000  Biso   1.000  O
  O8       1.0000 0.75000  0.75000  0.00000  Biso   1.000  O
  O9       1.0000 0.99827  0.93315  0.93488  Biso   1.000  O
  O10      1.0000 0.99827  0.43315  0.43488  Biso   1.000  O
  O11      1.0000 0.50173  0.93661  0.43488  Biso   1.000  O
  O12      1.0000 0.50173  0.43661  0.93488  Biso   1.000  O
  O13      1.0000 0.99827  0.06339  0.06512  Biso   1.000  O
  O14      1.0000 0.99827  0.56339  0.56512  Biso   1.000  O
  O15      1.0000 0.50173  0.06685  0.56512  Biso   1.000  O
  O16      1.0000 0.50173  0.56685  0.06512  Biso   1.000  O
  O17      1.0000 0.75006  0.86888  0.61882  Biso   1.000  O
  O18      1.0000 0.74994  0.36876  0.11882  Biso   1.000  O
  O19      1.0000 0.24994  0.86876  0.11882  Biso   1.000  O
  O20      1.0000 0.25006  0.36888  0.61882  Biso   1.000  O
  O21      1.0000 0.25006  0.13124  0.38118  Biso   1.000  O
  O22      1.0000 0.24994  0.63112  0.88118  Biso   1.000  O
  O23      1.0000 0.74994  0.13112  0.88118  Biso   1.000  O
  O24      1.0000 0.75006  0.63124  0.38118  Biso   1.000  O
  O25      1.0000 0.25006  0.37857  0.12863  Biso   1.000  O
  O26      1.0000 0.24994  0.87857  0.62851  Biso   1.000  O
  O27      1.0000 0.75006  0.38379  0.63385  Biso   1.000  O
  O28      1.0000 0.74994  0.88379  0.13373  Biso   1.000  O
  O29      1.0000 0.24994  0.12143  0.87137  Biso   1.000  O
  O30      1.0000 0.25006  0.62143  0.37149  Biso   1.000  O
  O31      1.0000 0.74994  0.11621  0.36615  Biso   1.000  O
  O32      1.0000 0.75006  0.61621  0.86627  Biso   1.000  O
  O33      1.0000 0.00469  0.80282  0.79813  Biso   1.000  O
  O34      1.0000 0.00469  0.30282  0.29813  Biso   1.000  O
  O35      1.0000 0.49531  0.79344  0.29813  Biso   1.000  O
  O36      1.0000 0.49531  0.29344  0.79813  Biso   1.000  O
  O37      1.0000 0.00469  0.20656  0.20187  Biso   1.000  O
  O38      1.0000 0.00469  0.70656  0.70187  Biso   1.000  O
  O39      1.0000 0.49531  0.19718  0.70187  Biso   1.000  O
  O40      1.0000 0.49531  0.69718  0.20187  Biso   1.000  O
