data_image0
_cell_length_a       16.1647
_cell_length_b       16.1647
_cell_length_c       16.1647
_cell_angle_alpha    151.885
_cell_angle_beta     40.1819
_cell_angle_gamma    151.885

_symmetry_space_group_name_H-M    "P 1"
_symmetry_int_tables_number       1

loop_
  _symmetry_equiv_pos_as_xyz
  'x, y, z'

loop_
  _atom_site_label
  _atom_site_occupancy
  _atom_site_fract_x
  _atom_site_fract_y
  _atom_site_fract_z
  _atom_site_thermal_displace_type
  _atom_site_B_iso_or_equiv
  _atom_site_type_symbol
  K1       1.0000 0.77901  0.01129  0.76772  Biso   1.000  K
  K2       1.0000 0.24358  0.01129  0.23228  Biso   1.000  K
  K3       1.0000 0.23871  0.48871  0.75000  Biso   1.000  K
  K4       1.0000 0.73871  0.48871  0.25000  Biso   1.000  K
  Pb1      1.0000 0.57067  0.99627  0.57440  Biso   1.000  Pb
  Pb2      1.0000 0.06861  0.99627  0.07234  Biso   1.000  Pb
  Pb3      1.0000 0.07710  0.50373  0.57337  Biso   1.000  Pb
  Pb4      1.0000 0.57710  0.50373  0.07337  Biso   1.000  Pb
  Pb5      1.0000 0.93036  0.50373  0.42663  Biso   1.000  Pb
  Pb6      1.0000 0.43036  0.50373  0.92663  Biso   1.000  Pb
  Pb7      1.0000 0.42187  0.99627  0.42560  Biso   1.000  Pb
  Pb8      1.0000 0.92393  0.99627  0.92766  Biso   1.000  Pb
  Nb1      1.0000 0.25027  0.99991  0.74964  Biso   1.000  Nb
  Nb2      1.0000 0.74973  0.99991  0.25018  Biso   1.000  Nb
  Nb3      1.0000 0.74973  0.49956  0.74982  Biso   1.000  Nb
  Nb4      1.0000 0.25027  0.50063  0.25036  Biso   1.000  Nb
  Ta1      1.0000 0.39279  0.00175  0.89611  Biso   1.000  Ta
  Ta2      1.0000 0.89437  0.00175  0.39454  Biso   1.000  Ta
  Ta3      1.0000 0.89437  0.49983  0.89262  Biso   1.000  Ta
  Ta4      1.0000 0.39279  0.49668  0.39105  Biso   1.000  Ta
  Ta5      1.0000 0.10563  0.00175  0.60895  Biso   1.000  Ta
  Ta6      1.0000 0.60721  0.00175  0.10738  Biso   1.000  Ta
  Ta7      1.0000 0.60721  0.49983  0.60546  Biso   1.000  Ta
  Ta8      1.0000 0.10563  0.49668  0.10389  Biso   1.000  Ta
  O1       1.0000 0.50000  0.25011  0.75011  Biso   1.000  O
  O2       1.0000 0.00000  0.24989  0.24989  Biso   1.000  O
  O3       1.0000 0.00000  0.75011  0.75011  Biso   1.000  O
  O4       1.0000 0.50000  0.74989  0.24989  Biso   1.000  O
  O5       1.0000 0.24989  0.24989  0.00000  Biso   1.000  O
  O6       1.0000 0.75011  0.25011  0.50000  Biso   1.000  O
  O7       1.0000 0.75011  0.75011  0.00000  Biso   1.000  O
  O8       1.0000 0.24989  0.74989  0.50000  Biso   1.000  O
  O9       1.0000 0.31602  0.99827  0.81249  Biso   1.000  O
  O10      1.0000 0.81422  0.99827  0.31429  Biso   1.000  O
  O11      1.0000 0.81422  0.49993  0.81595  Biso   1.000  O
  O12      1.0000 0.31602  0.50353  0.31775  Biso   1.000  O
  O13      1.0000 0.18578  0.99827  0.68225  Biso   1.000  O
  O14      1.0000 0.68398  0.99827  0.18405  Biso   1.000  O
  O15      1.0000 0.68398  0.49993  0.68571  Biso   1.000  O
  O16      1.0000 0.18578  0.50353  0.18751  Biso   1.000  O
  O17      1.0000 0.63306  0.25020  0.88326  Biso   1.000  O
  O18      1.0000 0.12930  0.24980  0.37910  Biso   1.000  O
  O19      1.0000 0.12930  0.75020  0.87951  Biso   1.000  O
  O20      1.0000 0.63306  0.74980  0.38285  Biso   1.000  O
  O21      1.0000 0.87070  0.75020  0.62090  Biso   1.000  O
  O22      1.0000 0.36694  0.74980  0.11674  Biso   1.000  O
  O23      1.0000 0.36694  0.25020  0.61715  Biso   1.000  O
  O24      1.0000 0.87070  0.24980  0.12049  Biso   1.000  O
  O25      1.0000 0.12310  0.24980  0.87330  Biso   1.000  O
  O26      1.0000 0.61976  0.25020  0.36955  Biso   1.000  O
  O27      1.0000 0.61829  0.75020  0.86809  Biso   1.000  O
  O28      1.0000 0.11413  0.74980  0.36434  Biso   1.000  O
  O29      1.0000 0.37649  0.24980  0.12670  Biso   1.000  O
  O30      1.0000 0.88065  0.25020  0.63045  Biso   1.000  O
  O31      1.0000 0.88212  0.75020  0.13191  Biso   1.000  O
  O32      1.0000 0.38546  0.74980  0.63566  Biso   1.000  O
  O33      1.0000 0.44845  0.00469  0.95998  Biso   1.000  O
  O34      1.0000 0.95529  0.00469  0.45314  Biso   1.000  O
  O35      1.0000 0.95529  0.50215  0.95060  Biso   1.000  O
  O36      1.0000 0.44845  0.48847  0.44376  Biso   1.000  O
  O37      1.0000 0.04471  0.00469  0.55624  Biso   1.000  O
  O38      1.0000 0.55155  0.00469  0.04940  Biso   1.000  O
  O39      1.0000 0.55155  0.50215  0.54686  Biso   1.000  O
  O40      1.0000 0.04471  0.48847  0.04002  Biso   1.000  O
