data_image0
_cell_length_a       16.1647
_cell_length_b       16.1647
_cell_length_c       16.1647
_cell_angle_alpha    40.1819
_cell_angle_beta     151.885
_cell_angle_gamma    151.885

_symmetry_space_group_name_H-M    "P 1"
_symmetry_int_tables_number       1

loop_
  _symmetry_equiv_pos_as_xyz
  'x, y, z'

loop_
  _atom_site_label
  _atom_site_occupancy
  _atom_site_fract_x
  _atom_site_fract_y
  _atom_site_fract_z
  _atom_site_thermal_displace_type
  _atom_site_B_iso_or_equiv
  _atom_site_type_symbol
  K1       1.0000 0.47879  0.48939  0.48939  Biso   1.000  K
  K2       1.0000 0.52121  0.01061  0.01061  Biso   1.000  K
  K3       1.0000 0.00000  0.51061  0.98939  Biso   1.000  K
  K4       1.0000 0.00000  0.98939  0.51061  Biso   1.000  K
  Pb1      1.0000 0.49991  0.67745  0.67745  Biso   1.000  Pb
  Pb2      1.0000 0.50009  0.17581  0.17581  Biso   1.000  Pb
  Pb3      1.0000 1.00000  0.67581  0.17572  Biso   1.000  Pb
  Pb4      1.0000 0.00000  0.17745  0.67754  Biso   1.000  Pb
  Pb5      1.0000 0.00000  0.82246  0.32255  Biso   1.000  Pb
  Pb6      1.0000 0.00000  0.32428  0.82419  Biso   1.000  Pb
  Pb7      1.0000 0.50009  0.82428  0.82428  Biso   1.000  Pb
  Pb8      1.0000 0.49991  0.32246  0.32246  Biso   1.000  Pb
  Nb1      1.0000 0.00000  0.00000  0.00000  Biso   1.000  Nb
  Nb2      1.0000 0.00000  0.50000  0.50000  Biso   1.000  Nb
  Nb3      1.0000 0.50000  0.00000  0.50000  Biso   1.000  Nb
  Nb4      1.0000 0.50000  0.50000  0.00000  Biso   1.000  Nb
  Ta1      1.0000 0.99983  0.85642  0.85625  Biso   1.000  Ta
  Ta2      1.0000 0.00017  0.35642  0.35659  Biso   1.000  Ta
  Ta3      1.0000 0.50017  0.85642  0.35659  Biso   1.000  Ta
  Ta4      1.0000 0.49983  0.35642  0.85625  Biso   1.000  Ta
  Ta5      1.0000 0.00017  0.14358  0.14375  Biso   1.000  Ta
  Ta6      1.0000 0.99983  0.64358  0.64341  Biso   1.000  Ta
  Ta7      1.0000 0.49983  0.14358  0.64341  Biso   1.000  Ta
  Ta8      1.0000 0.50017  0.64358  0.14375  Biso   1.000  Ta
  O1       1.0000 0.75000  0.99354  0.74354  Biso   1.000  O
  O2       1.0000 0.75000  0.50646  0.25646  Biso   1.000  O
  O3       1.0000 0.25000  0.00646  0.25646  Biso   1.000  O
  O4       1.0000 0.25000  0.49354  0.74354  Biso   1.000  O
  O5       1.0000 0.25000  0.25000  0.00000  Biso   1.000  O
  O6       1.0000 0.25000  0.75000  0.50000  Biso   1.000  O
  O7       1.0000 0.75000  0.25000  0.50000  Biso   1.000  O
  O8       1.0000 0.75000  0.75000  0.00000  Biso   1.000  O
  O9       1.0000 0.00504  0.93488  0.93992  Biso   1.000  O
  O10      1.0000 0.99496  0.43488  0.42984  Biso   1.000  O
  O11      1.0000 0.49496  0.93488  0.42984  Biso   1.000  O
  O12      1.0000 0.50504  0.43488  0.93992  Biso   1.000  O
  O13      1.0000 0.99496  0.06512  0.06008  Biso   1.000  O
  O14      1.0000 0.00504  0.56512  0.57016  Biso   1.000  O
  O15      1.0000 0.50504  0.06512  0.57016  Biso   1.000  O
  O16      1.0000 0.49496  0.56512  0.06008  Biso   1.000  O
  O17      1.0000 0.75006  0.87166  0.62160  Biso   1.000  O
  O18      1.0000 0.74994  0.36598  0.11604  Biso   1.000  O
  O19      1.0000 0.24994  0.86598  0.11604  Biso   1.000  O
  O20      1.0000 0.25006  0.37166  0.62160  Biso   1.000  O
  O21      1.0000 0.25006  0.12846  0.37840  Biso   1.000  O
  O22      1.0000 0.24994  0.63390  0.88396  Biso   1.000  O
  O23      1.0000 0.74994  0.13390  0.88396  Biso   1.000  O
  O24      1.0000 0.75006  0.62846  0.37840  Biso   1.000  O
  O25      1.0000 0.25067  0.38118  0.13185  Biso   1.000  O
  O26      1.0000 0.24933  0.88118  0.63051  Biso   1.000  O
  O27      1.0000 0.74944  0.38118  0.63062  Biso   1.000  O
  O28      1.0000 0.75056  0.88118  0.13174  Biso   1.000  O
  O29      1.0000 0.24933  0.11882  0.86815  Biso   1.000  O
  O30      1.0000 0.25067  0.61882  0.36949  Biso   1.000  O
  O31      1.0000 0.75056  0.11882  0.36938  Biso   1.000  O
  O32      1.0000 0.74944  0.61882  0.86826  Biso   1.000  O
  O33      1.0000 0.99895  0.79813  0.79708  Biso   1.000  O
  O34      1.0000 0.00105  0.29813  0.29918  Biso   1.000  O
  O35      1.0000 0.50105  0.79813  0.29918  Biso   1.000  O
  O36      1.0000 0.49895  0.29813  0.79708  Biso   1.000  O
  O37      1.0000 0.00105  0.20187  0.20292  Biso   1.000  O
  O38      1.0000 0.99895  0.70187  0.70082  Biso   1.000  O
  O39      1.0000 0.49895  0.20187  0.70082  Biso   1.000  O
  O40      1.0000 0.50105  0.70187  0.20292  Biso   1.000  O
