data_image0
_cell_length_a       16.1647
_cell_length_b       16.1647
_cell_length_c       16.1647
_cell_angle_alpha    40.1819
_cell_angle_beta     151.885
_cell_angle_gamma    151.885

_symmetry_space_group_name_H-M    "P 1"
_symmetry_int_tables_number       1

loop_
  _symmetry_equiv_pos_as_xyz
  'x, y, z'

loop_
  _atom_site_label
  _atom_site_occupancy
  _atom_site_fract_x
  _atom_site_fract_y
  _atom_site_fract_z
  _atom_site_thermal_displace_type
  _atom_site_B_iso_or_equiv
  _atom_site_type_symbol
  K1       1.0000 0.47879  0.48939  0.48939  Biso   1.000  K
  K2       1.0000 0.52121  0.01061  0.01061  Biso   1.000  K
  K3       1.0000 0.00000  0.51061  0.98939  Biso   1.000  K
  K4       1.0000 0.00000  0.98939  0.51061  Biso   1.000  K
  Pb1      1.0000 0.50250  0.67918  0.67659  Biso   1.000  Pb
  Pb2      1.0000 0.50268  0.17927  0.17667  Biso   1.000  Pb
  Pb3      1.0000 0.00259  0.67927  0.17659  Biso   1.000  Pb
  Pb4      1.0000 0.00259  0.17918  0.67667  Biso   1.000  Pb
  Pb5      1.0000 0.00259  0.82592  0.32341  Biso   1.000  Pb
  Pb6      1.0000 0.00259  0.32601  0.82333  Biso   1.000  Pb
  Pb7      1.0000 0.50268  0.82601  0.82341  Biso   1.000  Pb
  Pb8      1.0000 0.50250  0.32592  0.32333  Biso   1.000  Pb
  Nb1      1.0000 0.00252  0.00252  0.00000  Biso   1.000  Nb
  Nb2      1.0000 0.00252  0.50252  0.50000  Biso   1.000  Nb
  Nb3      1.0000 0.50252  0.00252  0.50000  Biso   1.000  Nb
  Nb4      1.0000 0.50252  0.50252  0.00000  Biso   1.000  Nb
  Ta1      1.0000 0.99817  0.85459  0.85642  Biso   1.000  Ta
  Ta2      1.0000 0.99817  0.35459  0.35642  Biso   1.000  Ta
  Ta3      1.0000 0.49817  0.85459  0.35642  Biso   1.000  Ta
  Ta4      1.0000 0.49817  0.35459  0.85642  Biso   1.000  Ta
  Ta5      1.0000 0.99817  0.14175  0.14358  Biso   1.000  Ta
  Ta6      1.0000 0.99817  0.64175  0.64358  Biso   1.000  Ta
  Ta7      1.0000 0.49817  0.14175  0.64358  Biso   1.000  Ta
  Ta8      1.0000 0.49817  0.64175  0.14358  Biso   1.000  Ta
  O1       1.0000 0.74372  0.99372  0.75000  Biso   1.000  O
  O2       1.0000 0.74372  0.49372  0.25000  Biso   1.000  O
  O3       1.0000 0.24372  0.99372  0.25000  Biso   1.000  O
  O4       1.0000 0.24372  0.49372  0.75000  Biso   1.000  O
  O5       1.0000 0.24703  0.24703  0.00000  Biso   1.000  O
  O6       1.0000 0.24703  0.74703  0.50000  Biso   1.000  O
  O7       1.0000 0.74703  0.24703  0.50000  Biso   1.000  O
  O8       1.0000 0.74703  0.74703  0.00000  Biso   1.000  O
  O9       1.0000 0.99654  0.93142  0.93488  Biso   1.000  O
  O10      1.0000 0.99654  0.43142  0.43488  Biso   1.000  O
  O11      1.0000 0.49654  0.93142  0.43488  Biso   1.000  O
  O12      1.0000 0.49654  0.43142  0.93488  Biso   1.000  O
  O13      1.0000 0.99654  0.06166  0.06512  Biso   1.000  O
  O14      1.0000 0.99654  0.56166  0.56512  Biso   1.000  O
  O15      1.0000 0.49654  0.06166  0.56512  Biso   1.000  O
  O16      1.0000 0.49654  0.56166  0.06512  Biso   1.000  O
  O17      1.0000 0.74818  0.86700  0.61882  Biso   1.000  O
  O18      1.0000 0.74806  0.36688  0.11882  Biso   1.000  O
  O19      1.0000 0.24806  0.86688  0.11882  Biso   1.000  O
  O20      1.0000 0.24818  0.36700  0.61882  Biso   1.000  O
  O21      1.0000 0.24818  0.12936  0.38118  Biso   1.000  O
  O22      1.0000 0.24806  0.62924  0.88118  Biso   1.000  O
  O23      1.0000 0.74806  0.12924  0.88118  Biso   1.000  O
  O24      1.0000 0.74818  0.62936  0.38118  Biso   1.000  O
  O25      1.0000 0.24860  0.37972  0.13124  Biso   1.000  O
  O26      1.0000 0.24848  0.87972  0.63112  Biso   1.000  O
  O27      1.0000 0.74860  0.37972  0.63124  Biso   1.000  O
  O28      1.0000 0.74848  0.87972  0.13112  Biso   1.000  O
  O29      1.0000 0.24848  0.11736  0.86876  Biso   1.000  O
  O30      1.0000 0.24860  0.61736  0.36888  Biso   1.000  O
  O31      1.0000 0.74848  0.11736  0.36876  Biso   1.000  O
  O32      1.0000 0.74860  0.61736  0.86888  Biso   1.000  O
  O33      1.0000 0.99889  0.79702  0.79813  Biso   1.000  O
  O34      1.0000 0.99889  0.29702  0.29813  Biso   1.000  O
  O35      1.0000 0.49889  0.79702  0.29813  Biso   1.000  O
  O36      1.0000 0.49889  0.29702  0.79813  Biso   1.000  O
  O37      1.0000 0.99889  0.20076  0.20187  Biso   1.000  O
  O38      1.0000 0.99889  0.70076  0.70187  Biso   1.000  O
  O39      1.0000 0.49889  0.20076  0.70187  Biso   1.000  O
  O40      1.0000 0.49889  0.70076  0.20187  Biso   1.000  O
