data_image0
_cell_length_a       16.1647
_cell_length_b       7.8528
_cell_length_c       16.1647
_cell_angle_alpha    75.9423
_cell_angle_beta     28.1154
_cell_angle_gamma    75.9423

_symmetry_space_group_name_H-M    "P 1"
_symmetry_int_tables_number       1

loop_
  _symmetry_equiv_pos_as_xyz
  'x, y, z'

loop_
  _atom_site_label
  _atom_site_occupancy
  _atom_site_fract_x
  _atom_site_fract_y
  _atom_site_fract_z
  _atom_site_thermal_displace_type
  _atom_site_B_iso_or_equiv
  _atom_site_type_symbol
  K1       1.0000 0.01625  0.49504  0.98375  Biso   1.000  K
  K2       1.0000 0.49504  0.01625  0.50496  Biso   1.000  K
  K3       1.0000 0.50496  0.50496  0.49504  Biso   1.000  K
  K4       1.0000 0.98375  0.98375  0.01625  Biso   1.000  K
  Pb1      1.0000 0.82155  0.67472  0.82519  Biso   1.000  Pb
  Pb2      1.0000 0.32146  0.17481  0.32528  Biso   1.000  Pb
  Pb3      1.0000 0.32528  0.67854  0.32146  Biso   1.000  Pb
  Pb4      1.0000 0.82519  0.17845  0.82155  Biso   1.000  Pb
  Pb5      1.0000 0.17845  0.82519  0.17481  Biso   1.000  Pb
  Pb6      1.0000 0.67854  0.32528  0.67472  Biso   1.000  Pb
  Pb7      1.0000 0.67472  0.82155  0.67854  Biso   1.000  Pb
  Pb8      1.0000 0.17481  0.32146  0.17845  Biso   1.000  Pb
  Nb1      1.0000 0.49995  0.99995  0.00005  Biso   1.000  Nb
  Nb2      1.0000 0.99995  0.49995  0.50005  Biso   1.000  Nb
  Nb3      1.0000 0.00005  0.00005  0.49995  Biso   1.000  Nb
  Nb4      1.0000 0.50005  0.50005  0.99995  Biso   1.000  Nb
  Ta1      1.0000 0.64445  0.85729  0.14271  Biso   1.000  Ta
  Ta2      1.0000 0.14445  0.35729  0.64271  Biso   1.000  Ta
  Ta3      1.0000 0.14271  0.85555  0.64445  Biso   1.000  Ta
  Ta4      1.0000 0.64271  0.35555  0.14445  Biso   1.000  Ta
  Ta5      1.0000 0.35729  0.14445  0.85555  Biso   1.000  Ta
  Ta6      1.0000 0.85729  0.64445  0.35555  Biso   1.000  Ta
  Ta7      1.0000 0.85555  0.14271  0.35729  Biso   1.000  Ta
  Ta8      1.0000 0.35555  0.64271  0.85729  Biso   1.000  Ta
  O1       1.0000 0.75000  0.00000  0.75000  Biso   1.000  O
  O2       1.0000 0.25000  0.50000  0.25000  Biso   1.000  O
  O3       1.0000 0.25000  0.00000  0.25000  Biso   1.000  O
  O4       1.0000 0.75000  0.50000  0.75000  Biso   1.000  O
  O5       1.0000 0.50000  0.25000  0.00000  Biso   1.000  O
  O6       1.0000 0.00000  0.75000  0.50000  Biso   1.000  O
  O7       1.0000 0.00000  0.25000  0.50000  Biso   1.000  O
  O8       1.0000 0.50000  0.75000  0.00000  Biso   1.000  O
  O9       1.0000 0.56425  0.93401  0.06599  Biso   1.000  O
  O10      1.0000 0.06425  0.43401  0.56599  Biso   1.000  O
  O11      1.0000 0.06599  0.93575  0.56425  Biso   1.000  O
  O12      1.0000 0.56599  0.43575  0.06425  Biso   1.000  O
  O13      1.0000 0.43401  0.06425  0.93575  Biso   1.000  O
  O14      1.0000 0.93401  0.56425  0.43575  Biso   1.000  O
  O15      1.0000 0.93575  0.06599  0.43401  Biso   1.000  O
  O16      1.0000 0.43575  0.56599  0.93401  Biso   1.000  O
  O17      1.0000 0.87988  0.87018  0.87988  Biso   1.000  O
  O18      1.0000 0.37988  0.37006  0.37988  Biso   1.000  O
  O19      1.0000 0.38248  0.86746  0.38248  Biso   1.000  O
  O20      1.0000 0.88248  0.36758  0.88248  Biso   1.000  O
  O21      1.0000 0.11752  0.13254  0.11752  Biso   1.000  O
  O22      1.0000 0.61752  0.63242  0.61752  Biso   1.000  O
  O23      1.0000 0.62012  0.12982  0.62012  Biso   1.000  O
  O24      1.0000 0.12012  0.62994  0.12012  Biso   1.000  O
  O25      1.0000 0.37006  0.37988  0.87018  Biso   1.000  O
  O26      1.0000 0.87018  0.87988  0.37006  Biso   1.000  O
  O27      1.0000 0.86746  0.38248  0.36758  Biso   1.000  O
  O28      1.0000 0.36758  0.88248  0.86746  Biso   1.000  O
  O29      1.0000 0.62994  0.12012  0.12982  Biso   1.000  O
  O30      1.0000 0.12982  0.62012  0.62994  Biso   1.000  O
  O31      1.0000 0.13254  0.11752  0.63242  Biso   1.000  O
  O32      1.0000 0.63242  0.61752  0.13254  Biso   1.000  O
  O33      1.0000 0.70422  0.80048  0.19952  Biso   1.000  O
  O34      1.0000 0.20422  0.30048  0.69952  Biso   1.000  O
  O35      1.0000 0.19952  0.79578  0.70422  Biso   1.000  O
  O36      1.0000 0.69952  0.29578  0.20422  Biso   1.000  O
  O37      1.0000 0.30048  0.20422  0.79578  Biso   1.000  O
  O38      1.0000 0.80048  0.70422  0.29578  Biso   1.000  O
  O39      1.0000 0.79578  0.19952  0.30048  Biso   1.000  O
  O40      1.0000 0.29578  0.69952  0.80048  Biso   1.000  O
