data_image0
_cell_length_a       16.1647
_cell_length_b       7.8528
_cell_length_c       16.1647
_cell_angle_alpha    75.9423
_cell_angle_beta     28.1154
_cell_angle_gamma    75.9423

_symmetry_space_group_name_H-M    "P 1"
_symmetry_int_tables_number       1

loop_
  _symmetry_equiv_pos_as_xyz
  'x, y, z'

loop_
  _atom_site_label
  _atom_site_occupancy
  _atom_site_fract_x
  _atom_site_fract_y
  _atom_site_fract_z
  _atom_site_thermal_displace_type
  _atom_site_B_iso_or_equiv
  _atom_site_type_symbol
  K1       1.0000 0.01061  0.01061  0.98939  Biso   1.000  K
  K2       1.0000 0.48939  0.48939  0.51061  Biso   1.000  K
  K3       1.0000 0.98939  0.51061  0.01061  Biso   1.000  K
  K4       1.0000 0.51061  0.98939  0.48939  Biso   1.000  K
  Pb1      1.0000 0.82168  0.17841  0.82159  Biso   1.000  Pb
  Pb2      1.0000 0.32506  0.67485  0.32515  Biso   1.000  Pb
  Pb3      1.0000 0.82333  0.67667  0.82341  Biso   1.000  Pb
  Pb4      1.0000 0.32341  0.17659  0.32333  Biso   1.000  Pb
  Pb5      1.0000 0.67667  0.82333  0.67659  Biso   1.000  Pb
  Pb6      1.0000 0.17659  0.32341  0.17667  Biso   1.000  Pb
  Pb7      1.0000 0.67485  0.32506  0.67494  Biso   1.000  Pb
  Pb8      1.0000 0.17841  0.82168  0.17832  Biso   1.000  Pb
  Nb1      1.0000 0.50000  0.00000  0.00000  Biso   1.000  Nb
  Nb2      1.0000 1.00000  0.50000  0.50000  Biso   1.000  Nb
  Nb3      1.0000 0.50000  0.50000  0.00000  Biso   1.000  Nb
  Nb4      1.0000 0.00000  0.00000  0.50000  Biso   1.000  Nb
  Ta1      1.0000 0.64375  0.85659  0.14341  Biso   1.000  Ta
  Ta2      1.0000 0.14341  0.35625  0.64375  Biso   1.000  Ta
  Ta3      1.0000 0.64375  0.35625  0.14341  Biso   1.000  Ta
  Ta4      1.0000 0.14341  0.85659  0.64375  Biso   1.000  Ta
  Ta5      1.0000 0.35625  0.14341  0.85659  Biso   1.000  Ta
  Ta6      1.0000 0.85659  0.64375  0.35625  Biso   1.000  Ta
  Ta7      1.0000 0.35625  0.64375  0.85659  Biso   1.000  Ta
  Ta8      1.0000 0.85659  0.14341  0.35625  Biso   1.000  Ta
  O1       1.0000 0.50646  0.24354  0.00646  Biso   1.000  O
  O2       1.0000 0.99354  0.75646  0.49354  Biso   1.000  O
  O3       1.0000 0.49354  0.75646  0.99354  Biso   1.000  O
  O4       1.0000 0.00646  0.24354  0.50646  Biso   1.000  O
  O5       1.0000 0.24354  0.00646  0.24354  Biso   1.000  O
  O6       1.0000 0.75646  0.49354  0.75646  Biso   1.000  O
  O7       1.0000 0.24354  0.50646  0.24354  Biso   1.000  O
  O8       1.0000 0.75646  0.99354  0.75646  Biso   1.000  O
  O9       1.0000 0.56008  0.92984  0.07016  Biso   1.000  O
  O10      1.0000 0.07016  0.43992  0.56008  Biso   1.000  O
  O11      1.0000 0.56008  0.43992  0.07016  Biso   1.000  O
  O12      1.0000 0.07016  0.92984  0.56008  Biso   1.000  O
  O13      1.0000 0.43992  0.07016  0.92984  Biso   1.000  O
  O14      1.0000 0.92984  0.56008  0.43992  Biso   1.000  O
  O15      1.0000 0.43992  0.56008  0.92984  Biso   1.000  O
  O16      1.0000 0.92984  0.07016  0.43992  Biso   1.000  O
  O17      1.0000 0.62895  0.12160  0.12784  Biso   1.000  O
  O18      1.0000 0.13341  0.61604  0.63452  Biso   1.000  O
  O19      1.0000 0.63464  0.61604  0.13329  Biso   1.000  O
  O20      1.0000 0.12772  0.12160  0.62907  Biso   1.000  O
  O21      1.0000 0.37093  0.87840  0.87228  Biso   1.000  O
  O22      1.0000 0.86671  0.38396  0.36536  Biso   1.000  O
  O23      1.0000 0.36548  0.38396  0.86659  Biso   1.000  O
  O24      1.0000 0.87216  0.87840  0.37105  Biso   1.000  O
  O25      1.0000 0.12160  0.12772  0.12160  Biso   1.000  O
  O26      1.0000 0.61604  0.63464  0.61604  Biso   1.000  O
  O27      1.0000 0.12160  0.62895  0.12160  Biso   1.000  O
  O28      1.0000 0.61604  0.13341  0.61604  Biso   1.000  O
  O29      1.0000 0.38396  0.86671  0.38396  Biso   1.000  O
  O30      1.0000 0.87840  0.37093  0.87840  Biso   1.000  O
  O31      1.0000 0.38396  0.36548  0.38396  Biso   1.000  O
  O32      1.0000 0.87840  0.87216  0.87840  Biso   1.000  O
  O33      1.0000 0.70292  0.79918  0.20082  Biso   1.000  O
  O34      1.0000 0.20082  0.29708  0.70292  Biso   1.000  O
  O35      1.0000 0.70292  0.29708  0.20082  Biso   1.000  O
  O36      1.0000 0.20082  0.79918  0.70292  Biso   1.000  O
  O37      1.0000 0.29708  0.20082  0.79918  Biso   1.000  O
  O38      1.0000 0.79918  0.70292  0.29708  Biso   1.000  O
  O39      1.0000 0.29708  0.70292  0.79918  Biso   1.000  O
  O40      1.0000 0.79918  0.20082  0.29708  Biso   1.000  O
