data_image0
_cell_length_a       3.9264
_cell_length_b       15.6806
_cell_length_c       15.6806
_cell_angle_alpha    150.998
_cell_angle_beta     90
_cell_angle_gamma    90

_symmetry_space_group_name_H-M    "P 1"
_symmetry_int_tables_number       1

loop_
  _symmetry_equiv_pos_as_xyz
  'x, y, z'

loop_
  _atom_site_label
  _atom_site_occupancy
  _atom_site_fract_x
  _atom_site_fract_y
  _atom_site_fract_z
  _atom_site_thermal_displace_type
  _atom_site_B_iso_or_equiv
  _atom_site_type_symbol
  K1       1.0000 0.47879  0.50000  0.00000  Biso   1.000  K
  K2       1.0000 0.52121  0.00000  0.50000  Biso   1.000  K
  Pb1      1.0000 0.49991  0.32078  0.17404  Biso   1.000  Pb
  Pb2      1.0000 0.50009  0.82078  0.67404  Biso   1.000  Pb
  Pb3      1.0000 0.49991  0.67404  0.82078  Biso   1.000  Pb
  Pb4      1.0000 0.50009  0.17404  0.32078  Biso   1.000  Pb
  Nb1      1.0000 0.00000  0.99748  0.99748  Biso   1.000  Nb
  Nb2      1.0000 0.00000  0.49748  0.49748  Biso   1.000  Nb
  Ta1      1.0000 1.00000  0.14541  0.85825  Biso   1.000  Ta
  Ta2      1.0000 0.00000  0.64541  0.35825  Biso   1.000  Ta
  Ta3      1.0000 0.00000  0.85825  0.14541  Biso   1.000  Ta
  Ta4      1.0000 1.00000  0.35825  0.64541  Biso   1.000  Ta
  O1       1.0000 0.00000  0.25297  0.25297  Biso   1.000  O
  O2       1.0000 0.00000  0.75297  0.75297  Biso   1.000  O
  O3       1.0000 0.50000  0.00628  0.00628  Biso   1.000  O
  O4       1.0000 0.50000  0.50628  0.50628  Biso   1.000  O
  O5       1.0000 1.00000  0.06858  0.93834  Biso   1.000  O
  O6       1.0000 0.00000  0.56858  0.43834  Biso   1.000  O
  O7       1.0000 0.00000  0.93834  0.06858  Biso   1.000  O
  O8       1.0000 1.00000  0.43834  0.56858  Biso   1.000  O
  O9       1.0000 0.00012  0.38264  0.12028  Biso   1.000  O
  O10      1.0000 0.99988  0.88264  0.62028  Biso   1.000  O
  O11      1.0000 0.00012  0.62028  0.88264  Biso   1.000  O
  O12      1.0000 0.99988  0.12028  0.38264  Biso   1.000  O
  O13      1.0000 0.50000  0.87070  0.13306  Biso   1.000  O
  O14      1.0000 0.50000  0.37070  0.63306  Biso   1.000  O
  O15      1.0000 0.50000  0.13306  0.87070  Biso   1.000  O
  O16      1.0000 0.50000  0.63306  0.37070  Biso   1.000  O
  O17      1.0000 1.00000  0.20298  0.79924  Biso   1.000  O
  O18      1.0000 0.00000  0.70298  0.29924  Biso   1.000  O
  O19      1.0000 0.00000  0.79924  0.20298  Biso   1.000  O
  O20      1.0000 1.00000  0.29924  0.70298  Biso   1.000  O
