data_image0
_cell_length_a       15.6806
_cell_length_b       15.6806
_cell_length_c       7.8528
_cell_angle_alpha    90
_cell_angle_beta     90
_cell_angle_gamma    150.998

_symmetry_space_group_name_H-M    "P 1"
_symmetry_int_tables_number       1

loop_
  _symmetry_equiv_pos_as_xyz
  'x, y, z'

loop_
  _atom_site_label
  _atom_site_occupancy
  _atom_site_fract_x
  _atom_site_fract_y
  _atom_site_fract_z
  _atom_site_thermal_displace_type
  _atom_site_B_iso_or_equiv
  _atom_site_type_symbol
  K1       1.0000 0.75000  0.75000  0.26061  Biso   1.000  K
  K2       1.0000 0.25000  0.25000  0.23939  Biso   1.000  K
  K3       1.0000 0.75000  0.75000  0.76061  Biso   1.000  K
  K4       1.0000 0.25000  0.25000  0.73939  Biso   1.000  K
  Pb1      1.0000 0.92326  0.57000  0.24667  Biso   1.000  Pb
  Pb2      1.0000 0.43000  0.07674  0.25333  Biso   1.000  Pb
  Pb3      1.0000 0.93000  0.57674  0.75342  Biso   1.000  Pb
  Pb4      1.0000 0.42326  0.07000  0.74658  Biso   1.000  Pb
  Pb5      1.0000 0.57674  0.93000  0.25342  Biso   1.000  Pb
  Pb6      1.0000 0.07000  0.42326  0.24658  Biso   1.000  Pb
  Pb7      1.0000 0.57000  0.92326  0.74667  Biso   1.000  Pb
  Pb8      1.0000 0.07674  0.43000  0.75333  Biso   1.000  Pb
  Nb1      1.0000 0.75032  0.25032  0.00032  Biso   1.000  Nb
  Nb2      1.0000 0.24968  0.74968  0.99968  Biso   1.000  Nb
  Nb3      1.0000 0.74968  0.24968  0.49968  Biso   1.000  Nb
  Nb4      1.0000 0.25032  0.75032  0.50032  Biso   1.000  Nb
  Ta1      1.0000 0.60548  0.39264  0.99906  Biso   1.000  Ta
  Ta2      1.0000 0.10736  0.89452  0.00094  Biso   1.000  Ta
  Ta3      1.0000 0.60736  0.39452  0.50094  Biso   1.000  Ta
  Ta4      1.0000 0.10548  0.89264  0.49906  Biso   1.000  Ta
  Ta5      1.0000 0.89264  0.10548  0.99906  Biso   1.000  Ta
  Ta6      1.0000 0.39452  0.60736  0.00094  Biso   1.000  Ta
  Ta7      1.0000 0.89452  0.10736  0.50094  Biso   1.000  Ta
  Ta8      1.0000 0.39264  0.60548  0.49906  Biso   1.000  Ta
  O1       1.0000 0.00000  0.50000  0.00000  Biso   1.000  O
  O2       1.0000 0.50000  0.00000  0.00000  Biso   1.000  O
  O3       1.0000 1.00000  0.50000  0.50000  Biso   1.000  O
  O4       1.0000 0.50000  0.00000  0.50000  Biso   1.000  O
  O5       1.0000 0.75000  0.25000  0.75000  Biso   1.000  O
  O6       1.0000 0.25000  0.75000  0.75000  Biso   1.000  O
  O7       1.0000 0.75000  0.25000  0.25000  Biso   1.000  O
  O8       1.0000 0.25000  0.75000  0.25000  Biso   1.000  O
  O9       1.0000 0.68780  0.31804  0.00292  Biso   1.000  O
  O10      1.0000 0.18196  0.81220  0.99708  Biso   1.000  O
  O11      1.0000 0.68196  0.31220  0.49708  Biso   1.000  O
  O12      1.0000 0.18780  0.81804  0.50292  Biso   1.000  O
  O13      1.0000 0.81804  0.18780  0.00292  Biso   1.000  O
  O14      1.0000 0.31220  0.68196  0.99708  Biso   1.000  O
  O15      1.0000 0.81220  0.18196  0.49708  Biso   1.000  O
  O16      1.0000 0.31804  0.68780  0.50292  Biso   1.000  O
  O17      1.0000 0.86666  0.63334  0.99994  Biso   1.000  O
  O18      1.0000 0.37098  0.12902  0.00006  Biso   1.000  O
  O19      1.0000 0.87098  0.62902  0.49994  Biso   1.000  O
  O20      1.0000 0.36666  0.13334  0.50006  Biso   1.000  O
  O21      1.0000 0.62902  0.87098  0.99994  Biso   1.000  O
  O22      1.0000 0.13334  0.36666  0.00006  Biso   1.000  O
  O23      1.0000 0.63334  0.86666  0.49994  Biso   1.000  O
  O24      1.0000 0.12902  0.37098  0.50006  Biso   1.000  O
  O25      1.0000 0.87902  0.12098  0.75000  Biso   1.000  O
  O26      1.0000 0.38334  0.61666  0.75000  Biso   1.000  O
  O27      1.0000 0.88334  0.11666  0.25000  Biso   1.000  O
  O28      1.0000 0.37902  0.62098  0.25000  Biso   1.000  O
  O29      1.0000 0.62098  0.37902  0.75000  Biso   1.000  O
  O30      1.0000 0.11666  0.88334  0.75000  Biso   1.000  O
  O31      1.0000 0.61666  0.38334  0.25000  Biso   1.000  O
  O32      1.0000 0.12098  0.87902  0.25000  Biso   1.000  O
  O33      1.0000 0.54650  0.45024  0.99837  Biso   1.000  O
  O34      1.0000 0.04976  0.95350  0.00163  Biso   1.000  O
  O35      1.0000 0.54976  0.45350  0.50163  Biso   1.000  O
  O36      1.0000 0.04650  0.95024  0.49837  Biso   1.000  O
  O37      1.0000 0.95024  0.04650  0.99837  Biso   1.000  O
  O38      1.0000 0.45350  0.54976  0.00163  Biso   1.000  O
  O39      1.0000 0.95350  0.04976  0.50163  Biso   1.000  O
  O40      1.0000 0.45024  0.54650  0.49837  Biso   1.000  O
