data_image0
_cell_length_a       16.1647
_cell_length_b       16.1647
_cell_length_c       16.1647
_cell_angle_alpha    40.1819
_cell_angle_beta     151.885
_cell_angle_gamma    151.885

_symmetry_space_group_name_H-M    "P 1"
_symmetry_int_tables_number       1

loop_
  _symmetry_equiv_pos_as_xyz
  'x, y, z'

loop_
  _atom_site_label
  _atom_site_occupancy
  _atom_site_fract_x
  _atom_site_fract_y
  _atom_site_fract_z
  _atom_site_thermal_displace_type
  _atom_site_B_iso_or_equiv
  _atom_site_type_symbol
  K1       1.0000 0.23939  0.48939  0.75000  Biso   1.000  K
  K2       1.0000 0.26061  0.01061  0.25000  Biso   1.000  K
  K3       1.0000 0.73939  0.98939  0.75000  Biso   1.000  K
  K4       1.0000 0.76061  0.51061  0.25000  Biso   1.000  K
  Pb1      1.0000 0.24996  0.32246  0.57250  Biso   1.000  Pb
  Pb2      1.0000 0.25004  0.82428  0.07424  Biso   1.000  Pb
  Pb3      1.0000 0.74996  0.82419  0.57424  Biso   1.000  Pb
  Pb4      1.0000 0.75004  0.32255  0.07250  Biso   1.000  Pb
  Pb5      1.0000 0.75004  0.67754  0.42750  Biso   1.000  Pb
  Pb6      1.0000 0.74996  0.17572  0.92576  Biso   1.000  Pb
  Pb7      1.0000 0.25004  0.17581  0.42576  Biso   1.000  Pb
  Pb8      1.0000 0.24996  0.67745  0.92750  Biso   1.000  Pb
  Nb1      1.0000 0.75000  0.50000  0.75000  Biso   1.000  Nb
  Nb2      1.0000 0.75000  0.00000  0.25000  Biso   1.000  Nb
  Nb3      1.0000 0.25000  0.00000  0.75000  Biso   1.000  Nb
  Nb4      1.0000 0.25000  0.50000  0.25000  Biso   1.000  Nb
  Ta1      1.0000 0.74983  0.64341  0.89358  Biso   1.000  Ta
  Ta2      1.0000 0.75017  0.14375  0.39358  Biso   1.000  Ta
  Ta3      1.0000 0.25017  0.14375  0.89358  Biso   1.000  Ta
  Ta4      1.0000 0.24983  0.64341  0.39358  Biso   1.000  Ta
  Ta5      1.0000 0.75017  0.35659  0.60642  Biso   1.000  Ta
  Ta6      1.0000 0.74983  0.85625  0.10642  Biso   1.000  Ta
  Ta7      1.0000 0.24983  0.85625  0.60642  Biso   1.000  Ta
  Ta8      1.0000 0.25017  0.35659  0.10642  Biso   1.000  Ta
  O1       1.0000 0.50000  0.25646  0.75646  Biso   1.000  O
  O2       1.0000 0.50000  0.74354  0.24354  Biso   1.000  O
  O3       1.0000 0.00000  0.74354  0.74354  Biso   1.000  O
  O4       1.0000 1.00000  0.25646  0.25646  Biso   1.000  O
  O5       1.0000 0.00000  0.50000  0.00000  Biso   1.000  O
  O6       1.0000 0.00000  0.00000  0.50000  Biso   1.000  O
  O7       1.0000 0.50000  0.00000  0.00000  Biso   1.000  O
  O8       1.0000 0.50000  0.50000  0.50000  Biso   1.000  O
  O9       1.0000 0.75504  0.57016  0.81512  Biso   1.000  O
  O10      1.0000 0.74496  0.06008  0.31512  Biso   1.000  O
  O11      1.0000 0.24496  0.06008  0.81512  Biso   1.000  O
  O12      1.0000 0.25504  0.57016  0.31512  Biso   1.000  O
  O13      1.0000 0.74496  0.42984  0.68488  Biso   1.000  O
  O14      1.0000 0.75504  0.93992  0.18488  Biso   1.000  O
  O15      1.0000 0.25504  0.93992  0.68488  Biso   1.000  O
  O16      1.0000 0.24496  0.42984  0.18488  Biso   1.000  O
  O17      1.0000 0.50000  0.37840  0.87840  Biso   1.000  O
  O18      1.0000 0.50000  0.88396  0.38396  Biso   1.000  O
  O19      1.0000 1.00000  0.88396  0.88396  Biso   1.000  O
  O20      1.0000 1.00000  0.37840  0.37840  Biso   1.000  O
  O21      1.0000 1.00000  0.62160  0.62160  Biso   1.000  O
  O22      1.0000 0.00000  0.11604  0.11604  Biso   1.000  O
  O23      1.0000 0.50000  0.11604  0.61604  Biso   1.000  O
  O24      1.0000 0.50000  0.62160  0.12160  Biso   1.000  O
  O25      1.0000 0.00067  0.36949  0.86882  Biso   1.000  O
  O26      1.0000 0.99933  0.86815  0.36882  Biso   1.000  O
  O27      1.0000 0.49944  0.86826  0.86882  Biso   1.000  O
  O28      1.0000 0.50056  0.36938  0.36882  Biso   1.000  O
  O29      1.0000 0.99933  0.63051  0.13118  Biso   1.000  O
  O30      1.0000 0.00067  0.13185  0.63118  Biso   1.000  O
  O31      1.0000 0.50056  0.13174  0.13118  Biso   1.000  O
  O32      1.0000 0.49944  0.63062  0.63118  Biso   1.000  O
  O33      1.0000 0.74895  0.70082  0.95187  Biso   1.000  O
  O34      1.0000 0.75105  0.20292  0.45187  Biso   1.000  O
  O35      1.0000 0.25105  0.20292  0.95187  Biso   1.000  O
  O36      1.0000 0.24895  0.70082  0.45187  Biso   1.000  O
  O37      1.0000 0.75105  0.29918  0.54813  Biso   1.000  O
  O38      1.0000 0.74895  0.79708  0.04813  Biso   1.000  O
  O39      1.0000 0.24895  0.79708  0.54813  Biso   1.000  O
  O40      1.0000 0.25105  0.29918  0.04813  Biso   1.000  O
