data_image0
_cell_length_a       16.1647
_cell_length_b       16.1647
_cell_length_c       16.1647
_cell_angle_alpha    151.885
_cell_angle_beta     151.885
_cell_angle_gamma    40.1819

_symmetry_space_group_name_H-M    "P 1"
_symmetry_int_tables_number       1

loop_
  _symmetry_equiv_pos_as_xyz
  'x, y, z'

loop_
  _atom_site_label
  _atom_site_occupancy
  _atom_site_fract_x
  _atom_site_fract_y
  _atom_site_fract_z
  _atom_site_thermal_displace_type
  _atom_site_B_iso_or_equiv
  _atom_site_type_symbol
  K1       1.0000 0.01772  0.01772  0.00000  Biso   1.000  K
  K2       1.0000 0.48228  0.48228  0.00000  Biso   1.000  K
  K3       1.0000 0.50000  0.00000  0.50000  Biso   1.000  K
  K4       1.0000 0.00000  0.50000  0.50000  Biso   1.000  K
  Pb1      1.0000 0.82266  0.82266  0.00000  Biso   1.000  Pb
  Pb2      1.0000 0.32408  0.32408  0.00000  Biso   1.000  Pb
  Pb3      1.0000 0.32337  0.82337  0.50000  Biso   1.000  Pb
  Pb4      1.0000 0.82337  0.32337  0.50000  Biso   1.000  Pb
  Pb5      1.0000 0.17663  0.67663  0.50000  Biso   1.000  Pb
  Pb6      1.0000 0.67663  0.17663  0.50000  Biso   1.000  Pb
  Pb7      1.0000 0.67386  0.67386  0.00000  Biso   1.000  Pb
  Pb8      1.0000 0.17940  0.17940  0.00000  Biso   1.000  Pb
  Nb1      1.0000 0.99973  0.99973  0.49946  Biso   1.000  Nb
  Nb2      1.0000 0.50027  0.50027  0.50054  Biso   1.000  Nb
  Nb3      1.0000 0.50027  0.99973  0.00000  Biso   1.000  Nb
  Nb4      1.0000 0.99973  0.50027  0.00000  Biso   1.000  Nb
  Ta1      1.0000 0.14420  0.14420  0.50124  Biso   1.000  Ta
  Ta2      1.0000 0.64296  0.64296  0.49876  Biso   1.000  Ta
  Ta3      1.0000 0.64296  0.14420  0.00000  Biso   1.000  Ta
  Ta4      1.0000 0.14420  0.64296  0.00000  Biso   1.000  Ta
  Ta5      1.0000 0.85738  0.85738  0.50192  Biso   1.000  Ta
  Ta6      1.0000 0.35546  0.35546  0.49808  Biso   1.000  Ta
  Ta7      1.0000 0.35546  0.85738  0.00000  Biso   1.000  Ta
  Ta8      1.0000 0.85738  0.35546  0.00000  Biso   1.000  Ta
  O1       1.0000 0.75646  0.00657  0.25011  Biso   1.000  O
  O2       1.0000 0.24354  0.49343  0.24989  Biso   1.000  O
  O3       1.0000 0.24354  0.99365  0.75011  Biso   1.000  O
  O4       1.0000 0.75646  0.50635  0.74989  Biso   1.000  O
  O5       1.0000 0.99365  0.24354  0.75011  Biso   1.000  O
  O6       1.0000 0.50635  0.75646  0.74989  Biso   1.000  O
  O7       1.0000 0.49343  0.24354  0.24989  Biso   1.000  O
  O8       1.0000 0.00657  0.75646  0.25011  Biso   1.000  O
  O9       1.0000 0.06926  0.06926  0.50828  Biso   1.000  O
  O10      1.0000 0.56098  0.56098  0.49172  Biso   1.000  O
  O11      1.0000 0.56098  0.06926  0.00000  Biso   1.000  O
  O12      1.0000 0.06926  0.56098  0.00000  Biso   1.000  O
  O13      1.0000 0.92894  0.92894  0.48812  Biso   1.000  O
  O14      1.0000 0.44082  0.44082  0.51188  Biso   1.000  O
  O15      1.0000 0.44082  0.92894  0.00000  Biso   1.000  O
  O16      1.0000 0.92894  0.44082  0.00000  Biso   1.000  O
  O17      1.0000 0.88027  0.12986  0.24959  Biso   1.000  O
  O18      1.0000 0.38209  0.63250  0.25041  Biso   1.000  O
  O19      1.0000 0.38209  0.13168  0.74959  Biso   1.000  O
  O20      1.0000 0.88027  0.63068  0.75041  Biso   1.000  O
  O21      1.0000 0.12348  0.87430  0.75082  Biso   1.000  O
  O22      1.0000 0.61416  0.36334  0.74918  Biso   1.000  O
  O23      1.0000 0.61416  0.86498  0.25082  Biso   1.000  O
  O24      1.0000 0.12348  0.37266  0.24918  Biso   1.000  O
  O25      1.0000 0.87430  0.12348  0.75082  Biso   1.000  O
  O26      1.0000 0.36334  0.61416  0.74918  Biso   1.000  O
  O27      1.0000 0.37266  0.12348  0.24918  Biso   1.000  O
  O28      1.0000 0.86498  0.61416  0.25082  Biso   1.000  O
  O29      1.0000 0.13168  0.38209  0.74959  Biso   1.000  O
  O30      1.0000 0.63068  0.88027  0.75041  Biso   1.000  O
  O31      1.0000 0.63250  0.38209  0.25041  Biso   1.000  O
  O32      1.0000 0.12986  0.88027  0.24959  Biso   1.000  O
  O33      1.0000 0.20424  0.20424  0.50474  Biso   1.000  O
  O34      1.0000 0.69950  0.69950  0.49526  Biso   1.000  O
  O35      1.0000 0.69950  0.20424  0.00000  Biso   1.000  O
  O36      1.0000 0.20424  0.69950  0.00000  Biso   1.000  O
  O37      1.0000 0.80260  0.80260  0.50894  Biso   1.000  O
  O38      1.0000 0.29366  0.29366  0.49106  Biso   1.000  O
  O39      1.0000 0.29366  0.80260  0.00000  Biso   1.000  O
  O40      1.0000 0.80260  0.29366  0.00000  Biso   1.000  O
