data_image0
_cell_length_a       16.1647
_cell_length_b       16.1647
_cell_length_c       16.1647
_cell_angle_alpha    151.885
_cell_angle_beta     151.885
_cell_angle_gamma    40.1819

_symmetry_space_group_name_H-M    "P 1"
_symmetry_int_tables_number       1

loop_
  _symmetry_equiv_pos_as_xyz
  'x, y, z'

loop_
  _atom_site_label
  _atom_site_occupancy
  _atom_site_fract_x
  _atom_site_fract_y
  _atom_site_fract_z
  _atom_site_thermal_displace_type
  _atom_site_B_iso_or_equiv
  _atom_site_type_symbol
  K1       1.0000 0.49114  0.49114  0.00000  Biso   1.000  K
  K2       1.0000 0.00886  0.00886  0.00000  Biso   1.000  K
  K3       1.0000 0.50886  0.00886  0.50000  Biso   1.000  K
  K4       1.0000 0.99114  0.49114  0.50000  Biso   1.000  K
  Pb1      1.0000 0.67785  0.67785  0.00000  Biso   1.000  Pb
  Pb2      1.0000 0.17541  0.17541  0.00000  Biso   1.000  Pb
  Pb3      1.0000 0.67714  0.17714  0.50000  Biso   1.000  Pb
  Pb4      1.0000 0.17612  0.67612  0.50000  Biso   1.000  Pb
  Pb5      1.0000 0.82286  0.32286  0.50000  Biso   1.000  Pb
  Pb6      1.0000 0.32388  0.82388  0.50000  Biso   1.000  Pb
  Pb7      1.0000 0.82562  0.82562  0.00000  Biso   1.000  Pb
  Pb8      1.0000 0.32112  0.32112  0.00000  Biso   1.000  Pb
  Nb1      1.0000 0.00000  0.99973  0.49973  Biso   1.000  Nb
  Nb2      1.0000 0.50000  0.50027  0.50027  Biso   1.000  Nb
  Nb3      1.0000 1.00000  0.50027  0.00027  Biso   1.000  Nb
  Nb4      1.0000 0.50000  0.99973  0.99973  Biso   1.000  Nb
  Ta1      1.0000 0.85625  0.85704  0.50045  Biso   1.000  Ta
  Ta2      1.0000 0.35659  0.35580  0.49955  Biso   1.000  Ta
  Ta3      1.0000 0.85625  0.35580  0.99921  Biso   1.000  Ta
  Ta4      1.0000 0.35659  0.85704  0.00079  Biso   1.000  Ta
  Ta5      1.0000 0.14375  0.14454  0.50113  Biso   1.000  Ta
  Ta6      1.0000 0.64341  0.64262  0.49887  Biso   1.000  Ta
  Ta7      1.0000 0.14375  0.64262  0.99921  Biso   1.000  Ta
  Ta8      1.0000 0.64341  0.14454  0.00079  Biso   1.000  Ta
  O1       1.0000 0.99354  0.74354  0.25000  Biso   1.000  O
  O2       1.0000 0.50646  0.25646  0.25000  Biso   1.000  O
  O3       1.0000 0.00646  0.25646  0.75000  Biso   1.000  O
  O4       1.0000 0.49354  0.74354  0.75000  Biso   1.000  O
  O5       1.0000 0.25646  0.00657  0.75011  Biso   1.000  O
  O6       1.0000 0.74354  0.49343  0.74989  Biso   1.000  O
  O7       1.0000 0.25646  0.50635  0.24989  Biso   1.000  O
  O8       1.0000 0.74354  0.99365  0.25011  Biso   1.000  O
  O9       1.0000 0.93992  0.93902  0.50918  Biso   1.000  O
  O10      1.0000 0.42984  0.43074  0.49082  Biso   1.000  O
  O11      1.0000 0.93992  0.43074  0.00090  Biso   1.000  O
  O12      1.0000 0.42984  0.93902  0.99910  Biso   1.000  O
  O13      1.0000 0.06008  0.05918  0.48902  Biso   1.000  O
  O14      1.0000 0.57016  0.57106  0.51098  Biso   1.000  O
  O15      1.0000 0.06008  0.57106  0.00090  Biso   1.000  O
  O16      1.0000 0.57016  0.05918  0.99910  Biso   1.000  O
  O17      1.0000 0.86911  0.61973  0.24938  Biso   1.000  O
  O18      1.0000 0.36853  0.11791  0.25062  Biso   1.000  O
  O19      1.0000 0.86730  0.11791  0.74938  Biso   1.000  O
  O20      1.0000 0.37034  0.61973  0.75062  Biso   1.000  O
  O21      1.0000 0.12714  0.37652  0.75062  Biso   1.000  O
  O22      1.0000 0.63522  0.88584  0.74938  Biso   1.000  O
  O23      1.0000 0.13645  0.88584  0.25062  Biso   1.000  O
  O24      1.0000 0.62591  0.37652  0.24938  Biso   1.000  O
  O25      1.0000 0.37840  0.12922  0.75082  Biso   1.000  O
  O26      1.0000 0.88396  0.63314  0.74918  Biso   1.000  O
  O27      1.0000 0.37840  0.62758  0.24918  Biso   1.000  O
  O28      1.0000 0.88396  0.13478  0.25082  Biso   1.000  O
  O29      1.0000 0.11604  0.86563  0.74959  Biso   1.000  O
  O30      1.0000 0.62160  0.37201  0.75041  Biso   1.000  O
  O31      1.0000 0.11604  0.36645  0.25041  Biso   1.000  O
  O32      1.0000 0.62160  0.87119  0.24959  Biso   1.000  O
  O33      1.0000 0.79708  0.80050  0.50132  Biso   1.000  O
  O34      1.0000 0.29918  0.29576  0.49868  Biso   1.000  O
  O35      1.0000 0.79708  0.29576  0.99658  Biso   1.000  O
  O36      1.0000 0.29918  0.80050  0.00342  Biso   1.000  O
  O37      1.0000 0.20292  0.20634  0.50552  Biso   1.000  O
  O38      1.0000 0.70082  0.69740  0.49448  Biso   1.000  O
  O39      1.0000 0.20292  0.69740  0.99658  Biso   1.000  O
  O40      1.0000 0.70082  0.20634  0.00342  Biso   1.000  O
