data_image0
_cell_length_a       15.6806
_cell_length_b       15.6806
_cell_length_c       7.8528
_cell_angle_alpha    90
_cell_angle_beta     90
_cell_angle_gamma    150.998

_symmetry_space_group_name_H-M    "P 1"
_symmetry_int_tables_number       1

loop_
  _symmetry_equiv_pos_as_xyz
  'x, y, z'

loop_
  _atom_site_label
  _atom_site_occupancy
  _atom_site_fract_x
  _atom_site_fract_y
  _atom_site_fract_z
  _atom_site_thermal_displace_type
  _atom_site_B_iso_or_equiv
  _atom_site_type_symbol
  K1       1.0000 0.49747  0.49747  0.74747  Biso   1.000  K
  K2       1.0000 0.00253  0.00253  0.75253  Biso   1.000  K
  K3       1.0000 0.50253  0.50253  0.25253  Biso   1.000  K
  K4       1.0000 0.99747  0.99747  0.24747  Biso   1.000  K
  Pb1      1.0000 0.67961  0.32461  0.75211  Biso   1.000  Pb
  Pb2      1.0000 0.17365  0.82213  0.74789  Biso   1.000  Pb
  Pb3      1.0000 0.67539  0.32039  0.24789  Biso   1.000  Pb
  Pb4      1.0000 0.17787  0.82635  0.25211  Biso   1.000  Pb
  Pb5      1.0000 0.32461  0.67961  0.75211  Biso   1.000  Pb
  Pb6      1.0000 0.82213  0.17365  0.74789  Biso   1.000  Pb
  Pb7      1.0000 0.32039  0.67539  0.24789  Biso   1.000  Pb
  Pb8      1.0000 0.82635  0.17787  0.25211  Biso   1.000  Pb
  Nb1      1.0000 0.50000  0.00000  0.50000  Biso   1.000  Nb
  Nb2      1.0000 1.00000  0.50000  0.50000  Biso   1.000  Nb
  Nb3      1.0000 0.50000  0.00000  0.00000  Biso   1.000  Nb
  Nb4      1.0000 0.00000  0.50000  0.00000  Biso   1.000  Nb
  Ta1      1.0000 0.35707  0.14423  0.50048  Biso   1.000  Ta
  Ta2      1.0000 0.85577  0.64293  0.49952  Biso   1.000  Ta
  Ta3      1.0000 0.35610  0.14326  0.99952  Biso   1.000  Ta
  Ta4      1.0000 0.85674  0.64390  0.00048  Biso   1.000  Ta
  Ta5      1.0000 0.64293  0.85577  0.49952  Biso   1.000  Ta
  Ta6      1.0000 0.14423  0.35707  0.50048  Biso   1.000  Ta
  Ta7      1.0000 0.64390  0.85674  0.00048  Biso   1.000  Ta
  Ta8      1.0000 0.14326  0.35610  0.99952  Biso   1.000  Ta
  O1       1.0000 0.74046  0.25954  0.50000  Biso   1.000  O
  O2       1.0000 0.25954  0.74046  0.50000  Biso   1.000  O
  O3       1.0000 0.74663  0.25337  0.00000  Biso   1.000  O
  O4       1.0000 0.25337  0.74663  0.00000  Biso   1.000  O
  O5       1.0000 0.50308  0.99692  0.25000  Biso   1.000  O
  O6       1.0000 0.99692  0.50308  0.25000  Biso   1.000  O
  O7       1.0000 0.49692  0.00308  0.75000  Biso   1.000  O
  O8       1.0000 0.00308  0.49692  0.75000  Biso   1.000  O
  O9       1.0000 0.42690  0.05714  0.49706  Biso   1.000  O
  O10      1.0000 0.94286  0.57310  0.50294  Biso   1.000  O
  O11      1.0000 0.43278  0.06302  0.00294  Biso   1.000  O
  O12      1.0000 0.93698  0.56722  0.99706  Biso   1.000  O
  O13      1.0000 0.57310  0.94286  0.50294  Biso   1.000  O
  O14      1.0000 0.05714  0.42690  0.49706  Biso   1.000  O
  O15      1.0000 0.56722  0.93698  0.99706  Biso   1.000  O
  O16      1.0000 0.06302  0.43278  0.00294  Biso   1.000  O
  O17      1.0000 0.62339  0.37661  0.50000  Biso   1.000  O
  O18      1.0000 0.11425  0.88575  0.50000  Biso   1.000  O
  O19      1.0000 0.61981  0.38019  0.00000  Biso   1.000  O
  O20      1.0000 0.11783  0.88217  0.00000  Biso   1.000  O
  O21      1.0000 0.37661  0.62339  0.50000  Biso   1.000  O
  O22      1.0000 0.88575  0.11425  0.50000  Biso   1.000  O
  O23      1.0000 0.38019  0.61981  0.00000  Biso   1.000  O
  O24      1.0000 0.88217  0.11783  0.00000  Biso   1.000  O
  O25      1.0000 0.62877  0.86999  0.25000  Biso   1.000  O
  O26      1.0000 0.13359  0.36765  0.25000  Biso   1.000  O
  O27      1.0000 0.63235  0.86641  0.75000  Biso   1.000  O
  O28      1.0000 0.13001  0.37123  0.75000  Biso   1.000  O
  O29      1.0000 0.36765  0.13359  0.25000  Biso   1.000  O
  O30      1.0000 0.86999  0.62877  0.25000  Biso   1.000  O
  O31      1.0000 0.37123  0.13001  0.75000  Biso   1.000  O
  O32      1.0000 0.86641  0.63235  0.75000  Biso   1.000  O
  O33      1.0000 0.30109  0.20483  0.50192  Biso   1.000  O
  O34      1.0000 0.79517  0.69891  0.49808  Biso   1.000  O
  O35      1.0000 0.29726  0.20100  0.99808  Biso   1.000  O
  O36      1.0000 0.79900  0.70274  0.00192  Biso   1.000  O
  O37      1.0000 0.69891  0.79517  0.49808  Biso   1.000  O
  O38      1.0000 0.20483  0.30109  0.50192  Biso   1.000  O
  O39      1.0000 0.70274  0.79900  0.00192  Biso   1.000  O
  O40      1.0000 0.20100  0.29726  0.99808  Biso   1.000  O
