data_image0
_cell_length_a       16.1647
_cell_length_b       16.1647
_cell_length_c       16.1647
_cell_angle_alpha    151.885
_cell_angle_beta     40.1819
_cell_angle_gamma    151.885

_symmetry_space_group_name_H-M    "P 1"
_symmetry_int_tables_number       1

loop_
  _symmetry_equiv_pos_as_xyz
  'x, y, z'

loop_
  _atom_site_label
  _atom_site_occupancy
  _atom_site_fract_x
  _atom_site_fract_y
  _atom_site_fract_z
  _atom_site_thermal_displace_type
  _atom_site_B_iso_or_equiv
  _atom_site_type_symbol
  K1       1.0000 0.00000  0.50000  0.50000  Biso   1.000  K
  K2       1.0000 0.50000  0.50000  0.00000  Biso   1.000  K
  K3       1.0000 0.00000  0.00000  0.00000  Biso   1.000  K
  K4       1.0000 0.50000  0.00000  0.50000  Biso   1.000  K
  Pb1      1.0000 0.82422  0.50259  0.32163  Biso   1.000  Pb
  Pb2      1.0000 0.32770  0.50259  0.82511  Biso   1.000  Pb
  Pb3      1.0000 0.82596  0.00259  0.82337  Biso   1.000  Pb
  Pb4      1.0000 0.32596  0.00259  0.32337  Biso   1.000  Pb
  Pb5      1.0000 0.67922  0.00259  0.67663  Biso   1.000  Pb
  Pb6      1.0000 0.17922  0.00259  0.17663  Biso   1.000  Pb
  Pb7      1.0000 0.67748  0.50259  0.17489  Biso   1.000  Pb
  Pb8      1.0000 0.18096  0.50259  0.67837  Biso   1.000  Pb
  Nb1      1.0000 0.00252  0.00252  0.50000  Biso   1.000  Nb
  Nb2      1.0000 0.50252  0.00252  0.00000  Biso   1.000  Nb
  Nb3      1.0000 0.00252  0.50252  0.00000  Biso   1.000  Nb
  Nb4      1.0000 0.50252  0.50252  0.50000  Biso   1.000  Nb
  Ta1      1.0000 0.14158  0.99783  0.64341  Biso   1.000  Ta
  Ta2      1.0000 0.64192  0.99851  0.14375  Biso   1.000  Ta
  Ta3      1.0000 0.14158  0.49817  0.14375  Biso   1.000  Ta
  Ta4      1.0000 0.64192  0.49817  0.64341  Biso   1.000  Ta
  Ta5      1.0000 0.85476  0.99851  0.35659  Biso   1.000  Ta
  Ta6      1.0000 0.35442  0.99783  0.85625  Biso   1.000  Ta
  Ta7      1.0000 0.85476  0.49817  0.85625  Biso   1.000  Ta
  Ta8      1.0000 0.35442  0.49817  0.35659  Biso   1.000  Ta
  O1       1.0000 0.00018  0.74372  0.25646  Biso   1.000  O
  O2       1.0000 0.48727  0.74372  0.74354  Biso   1.000  O
  O3       1.0000 0.98727  0.24372  0.74354  Biso   1.000  O
  O4       1.0000 0.50018  0.24372  0.25646  Biso   1.000  O
  O5       1.0000 0.24058  0.24703  0.49354  Biso   1.000  O
  O6       1.0000 0.75349  0.24703  0.00646  Biso   1.000  O
  O7       1.0000 0.24058  0.74703  0.99354  Biso   1.000  O
  O8       1.0000 0.75349  0.74703  0.50646  Biso   1.000  O
  O9       1.0000 0.06670  0.00661  0.57016  Biso   1.000  O
  O10      1.0000 0.55662  0.98646  0.06008  Biso   1.000  O
  O11      1.0000 0.06670  0.49654  0.06008  Biso   1.000  O
  O12      1.0000 0.55662  0.49654  0.57016  Biso   1.000  O
  O13      1.0000 0.92638  0.98646  0.42984  Biso   1.000  O
  O14      1.0000 0.43646  0.00661  0.93992  Biso   1.000  O
  O15      1.0000 0.92638  0.49654  0.93992  Biso   1.000  O
  O16      1.0000 0.43646  0.49654  0.42984  Biso   1.000  O
  O17      1.0000 0.12590  0.74750  0.37840  Biso   1.000  O
  O18      1.0000 0.63270  0.74873  0.88396  Biso   1.000  O
  O19      1.0000 0.13146  0.24750  0.88396  Biso   1.000  O
  O20      1.0000 0.62713  0.24873  0.37840  Biso   1.000  O
  O21      1.0000 0.87034  0.24873  0.62160  Biso   1.000  O
  O22      1.0000 0.36354  0.24750  0.11604  Biso   1.000  O
  O23      1.0000 0.86477  0.74873  0.11604  Biso   1.000  O
  O24      1.0000 0.36910  0.74750  0.62160  Biso   1.000  O
  O25      1.0000 0.12014  0.24916  0.37222  Biso   1.000  O
  O26      1.0000 0.61458  0.24792  0.86542  Biso   1.000  O
  O27      1.0000 0.12014  0.74792  0.87099  Biso   1.000  O
  O28      1.0000 0.61458  0.74916  0.36665  Biso   1.000  O
  O29      1.0000 0.38250  0.24792  0.63335  Biso   1.000  O
  O30      1.0000 0.87694  0.24916  0.12901  Biso   1.000  O
  O31      1.0000 0.38250  0.74916  0.13458  Biso   1.000  O
  O32      1.0000 0.87694  0.74792  0.62778  Biso   1.000  O
  O33      1.0000 0.19971  0.99679  0.70082  Biso   1.000  O
  O34      1.0000 0.70181  0.00099  0.20292  Biso   1.000  O
  O35      1.0000 0.19971  0.49889  0.20292  Biso   1.000  O
  O36      1.0000 0.70181  0.49889  0.70082  Biso   1.000  O
  O37      1.0000 0.79807  0.00099  0.29918  Biso   1.000  O
  O38      1.0000 0.29597  0.99679  0.79708  Biso   1.000  O
  O39      1.0000 0.79807  0.49889  0.79708  Biso   1.000  O
  O40      1.0000 0.29597  0.49889  0.29918  Biso   1.000  O
