data_image0
_cell_length_a       7.8528
_cell_length_b       7.8528
_cell_length_c       30.3622
_cell_angle_alpha    90
_cell_angle_beta     90
_cell_angle_gamma    90

_symmetry_space_group_name_H-M    "P 1"
_symmetry_int_tables_number       1

loop_
  _symmetry_equiv_pos_as_xyz
  'x, y, z'

loop_
  _atom_site_label
  _atom_site_occupancy
  _atom_site_fract_x
  _atom_site_fract_y
  _atom_site_fract_z
  _atom_site_thermal_displace_type
  _atom_site_B_iso_or_equiv
  _atom_site_type_symbol
  K1       1.0000 0.00000  0.00000  0.50000  Biso   1.000  K
  K2       1.0000 0.00000  0.00000  0.00000  Biso   1.000  K
  K3       1.0000 0.50000  0.00000  0.50000  Biso   1.000  K
  K4       1.0000 0.50000  0.00000  0.00000  Biso   1.000  K
  K5       1.0000 0.00000  0.50000  0.50000  Biso   1.000  K
  K6       1.0000 0.00000  0.50000  0.00000  Biso   1.000  K
  K7       1.0000 0.50000  0.50000  0.50000  Biso   1.000  K
  K8       1.0000 0.50000  0.50000  0.00000  Biso   1.000  K
  Pb1      1.0000 0.99663  0.00337  0.67837  Biso   1.000  Pb
  Pb2      1.0000 0.00337  0.99663  0.17489  Biso   1.000  Pb
  Pb3      1.0000 0.50337  0.99663  0.67663  Biso   1.000  Pb
  Pb4      1.0000 0.49663  0.00337  0.17663  Biso   1.000  Pb
  Pb5      1.0000 0.00337  0.49663  0.67663  Biso   1.000  Pb
  Pb6      1.0000 0.99663  0.50337  0.17663  Biso   1.000  Pb
  Pb7      1.0000 0.49663  0.50337  0.67489  Biso   1.000  Pb
  Pb8      1.0000 0.50337  0.49663  0.17837  Biso   1.000  Pb
  Pb9      1.0000 0.50337  0.99663  0.82337  Biso   1.000  Pb
  Pb10     1.0000 0.49663  0.00337  0.32337  Biso   1.000  Pb
  Pb11     1.0000 0.99663  0.00337  0.82511  Biso   1.000  Pb
  Pb12     1.0000 0.00337  0.99663  0.32163  Biso   1.000  Pb
  Pb13     1.0000 0.49663  0.50337  0.82163  Biso   1.000  Pb
  Pb14     1.0000 0.50337  0.49663  0.32511  Biso   1.000  Pb
  Pb15     1.0000 0.00337  0.49663  0.82337  Biso   1.000  Pb
  Pb16     1.0000 0.99663  0.50337  0.32337  Biso   1.000  Pb
  Nb1      1.0000 0.74968  0.75032  0.75000  Biso   1.000  Nb
  Nb2      1.0000 0.75032  0.74968  0.25000  Biso   1.000  Nb
  Nb3      1.0000 0.25032  0.74968  0.75000  Biso   1.000  Nb
  Nb4      1.0000 0.24968  0.75032  0.25000  Biso   1.000  Nb
  Nb5      1.0000 0.75032  0.24968  0.75000  Biso   1.000  Nb
  Nb6      1.0000 0.74968  0.25032  0.25000  Biso   1.000  Nb
  Nb7      1.0000 0.24968  0.25032  0.75000  Biso   1.000  Nb
  Nb8      1.0000 0.25032  0.24968  0.25000  Biso   1.000  Nb
  Ta1      1.0000 0.75111  0.74923  0.60642  Biso   1.000  Ta
  Ta2      1.0000 0.74889  0.75077  0.10642  Biso   1.000  Ta
  Ta3      1.0000 0.24889  0.75111  0.60642  Biso   1.000  Ta
  Ta4      1.0000 0.25111  0.74889  0.10642  Biso   1.000  Ta
  Ta5      1.0000 0.74923  0.25077  0.60642  Biso   1.000  Ta
  Ta6      1.0000 0.75077  0.24923  0.10642  Biso   1.000  Ta
  Ta7      1.0000 0.25077  0.24889  0.60642  Biso   1.000  Ta
  Ta8      1.0000 0.24923  0.25111  0.10642  Biso   1.000  Ta
  Ta9      1.0000 0.75077  0.74889  0.89358  Biso   1.000  Ta
  Ta10     1.0000 0.74923  0.75111  0.39358  Biso   1.000  Ta
  Ta11     1.0000 0.24923  0.75077  0.89358  Biso   1.000  Ta
  Ta12     1.0000 0.25077  0.74923  0.39358  Biso   1.000  Ta
  Ta13     1.0000 0.74889  0.25111  0.89358  Biso   1.000  Ta
  Ta14     1.0000 0.75111  0.24889  0.39358  Biso   1.000  Ta
  Ta15     1.0000 0.25111  0.24923  0.89358  Biso   1.000  Ta
  Ta16     1.0000 0.24889  0.25077  0.39358  Biso   1.000  Ta
  O1       1.0000 0.00000  0.75000  0.74354  Biso   1.000  O
  O2       1.0000 0.00000  0.75000  0.25646  Biso   1.000  O
  O3       1.0000 0.50000  0.75000  0.75646  Biso   1.000  O
  O4       1.0000 0.50000  0.75000  0.24354  Biso   1.000  O
  O5       1.0000 0.00000  0.25000  0.74354  Biso   1.000  O
  O6       1.0000 0.00000  0.25000  0.25646  Biso   1.000  O
  O7       1.0000 0.50000  0.25000  0.75646  Biso   1.000  O
  O8       1.0000 0.50000  0.25000  0.24354  Biso   1.000  O
  O9       1.0000 0.75000  0.50000  0.75646  Biso   1.000  O
  O10      1.0000 0.75000  0.50000  0.24354  Biso   1.000  O
  O11      1.0000 0.25000  0.50000  0.75646  Biso   1.000  O
  O12      1.0000 0.25000  0.50000  0.24354  Biso   1.000  O
  O13      1.0000 0.75000  0.00000  0.74354  Biso   1.000  O
  O14      1.0000 0.75000  0.00000  0.25646  Biso   1.000  O
  O15      1.0000 0.25000  0.00000  0.74354  Biso   1.000  O
  O16      1.0000 0.25000  0.00000  0.25646  Biso   1.000  O
  O17      1.0000 0.74205  0.74788  0.68488  Biso   1.000  O
  O18      1.0000 0.75795  0.75212  0.18488  Biso   1.000  O
  O19      1.0000 0.25795  0.74205  0.68488  Biso   1.000  O
  O20      1.0000 0.24205  0.75795  0.18488  Biso   1.000  O
  O21      1.0000 0.74788  0.25212  0.68488  Biso   1.000  O
  O22      1.0000 0.75212  0.24788  0.18488  Biso   1.000  O
  O23      1.0000 0.25212  0.25795  0.68488  Biso   1.000  O
  O24      1.0000 0.24788  0.24205  0.18488  Biso   1.000  O
  O25      1.0000 0.75212  0.75795  0.81512  Biso   1.000  O
  O26      1.0000 0.74788  0.74205  0.31512  Biso   1.000  O
  O27      1.0000 0.24788  0.75212  0.81512  Biso   1.000  O
  O28      1.0000 0.25212  0.74788  0.31512  Biso   1.000  O
  O29      1.0000 0.75795  0.24205  0.81512  Biso   1.000  O
  O30      1.0000 0.74205  0.25795  0.31512  Biso   1.000  O
  O31      1.0000 0.24205  0.24788  0.81512  Biso   1.000  O
  O32      1.0000 0.25795  0.25212  0.31512  Biso   1.000  O
  O33      1.0000 0.00000  0.75062  0.62376  Biso   1.000  O
  O34      1.0000 0.00000  0.74938  0.11388  Biso   1.000  O
  O35      1.0000 0.50000  0.75062  0.61388  Biso   1.000  O
  O36      1.0000 0.50000  0.74938  0.12376  Biso   1.000  O
  O37      1.0000 1.00000  0.24938  0.61945  Biso   1.000  O
  O38      1.0000 0.00000  0.25062  0.11819  Biso   1.000  O
  O39      1.0000 0.50000  0.24938  0.61819  Biso   1.000  O
  O40      1.0000 0.50000  0.25062  0.11945  Biso   1.000  O
  O41      1.0000 0.50000  0.74938  0.88055  Biso   1.000  O
  O42      1.0000 0.50000  0.75062  0.38181  Biso   1.000  O
  O43      1.0000 0.00000  0.74938  0.88181  Biso   1.000  O
  O44      1.0000 0.00000  0.75062  0.38055  Biso   1.000  O
  O45      1.0000 0.50000  0.25062  0.87624  Biso   1.000  O
  O46      1.0000 0.50000  0.24938  0.38612  Biso   1.000  O
  O47      1.0000 0.00000  0.25062  0.88612  Biso   1.000  O
  O48      1.0000 0.00000  0.24938  0.37624  Biso   1.000  O
  O49      1.0000 0.74938  0.50000  0.87624  Biso   1.000  O
  O50      1.0000 0.75062  0.50000  0.38612  Biso   1.000  O
  O51      1.0000 0.25062  0.50000  0.88055  Biso   1.000  O
  O52      1.0000 0.24938  0.50000  0.38181  Biso   1.000  O
  O53      1.0000 0.74938  0.00000  0.88612  Biso   1.000  O
  O54      1.0000 0.75062  0.00000  0.37624  Biso   1.000  O
  O55      1.0000 0.25062  0.00000  0.88181  Biso   1.000  O
  O56      1.0000 0.24938  0.00000  0.38055  Biso   1.000  O
  O57      1.0000 0.75062  0.50000  0.61819  Biso   1.000  O
  O58      1.0000 0.74938  0.50000  0.11945  Biso   1.000  O
  O59      1.0000 0.24938  0.50000  0.61388  Biso   1.000  O
  O60      1.0000 0.25062  0.50000  0.12376  Biso   1.000  O
  O61      1.0000 0.75062  0.00000  0.61945  Biso   1.000  O
  O62      1.0000 0.74938  0.00000  0.11819  Biso   1.000  O
  O63      1.0000 0.24938  0.00000  0.62376  Biso   1.000  O
  O64      1.0000 0.25062  0.00000  0.11388  Biso   1.000  O
  O65      1.0000 0.75268  0.74942  0.54813  Biso   1.000  O
  O66      1.0000 0.74732  0.75058  0.04813  Biso   1.000  O
  O67      1.0000 0.24732  0.75268  0.54813  Biso   1.000  O
  O68      1.0000 0.25268  0.74732  0.04813  Biso   1.000  O
  O69      1.0000 0.74942  0.25058  0.54813  Biso   1.000  O
  O70      1.0000 0.75058  0.24942  0.04813  Biso   1.000  O
  O71      1.0000 0.25058  0.24732  0.54813  Biso   1.000  O
  O72      1.0000 0.24942  0.25268  0.04813  Biso   1.000  O
  O73      1.0000 0.75058  0.74732  0.95187  Biso   1.000  O
  O74      1.0000 0.74942  0.75268  0.45187  Biso   1.000  O
  O75      1.0000 0.24942  0.75058  0.95187  Biso   1.000  O
  O76      1.0000 0.25058  0.74942  0.45187  Biso   1.000  O
  O77      1.0000 0.74732  0.25268  0.95187  Biso   1.000  O
  O78      1.0000 0.75268  0.24732  0.45187  Biso   1.000  O
  O79      1.0000 0.25268  0.24942  0.95187  Biso   1.000  O
  O80      1.0000 0.24732  0.25058  0.45187  Biso   1.000  O
