data_image0
_cell_length_a       16.1647
_cell_length_b       16.1647
_cell_length_c       16.1647
_cell_angle_alpha    151.885
_cell_angle_beta     151.885
_cell_angle_gamma    40.1819

_symmetry_space_group_name_H-M    "P 1"
_symmetry_int_tables_number       1

loop_
  _symmetry_equiv_pos_as_xyz
  'x, y, z'

loop_
  _atom_site_label
  _atom_site_occupancy
  _atom_site_fract_x
  _atom_site_fract_y
  _atom_site_fract_z
  _atom_site_thermal_displace_type
  _atom_site_B_iso_or_equiv
  _atom_site_type_symbol
  K1       1.0000 0.00000  0.00000  0.00000  Biso   1.000  K
  K2       1.0000 0.50000  0.50000  0.00000  Biso   1.000  K
  K3       1.0000 0.50000  0.00000  0.50000  Biso   1.000  K
  K4       1.0000 0.00000  0.50000  0.50000  Biso   1.000  K
  Pb1      1.0000 0.82163  0.82163  0.00000  Biso   1.000  Pb
  Pb2      1.0000 0.32511  0.32511  0.00000  Biso   1.000  Pb
  Pb3      1.0000 0.32337  0.82337  0.50000  Biso   1.000  Pb
  Pb4      1.0000 0.82337  0.32337  0.50000  Biso   1.000  Pb
  Pb5      1.0000 0.17663  0.67663  0.50000  Biso   1.000  Pb
  Pb6      1.0000 0.67663  0.17663  0.50000  Biso   1.000  Pb
  Pb7      1.0000 0.67489  0.67489  0.00000  Biso   1.000  Pb
  Pb8      1.0000 0.17837  0.17837  0.00000  Biso   1.000  Pb
  Nb1      1.0000 0.00000  0.00000  0.50000  Biso   1.000  Nb
  Nb2      1.0000 0.50000  0.50000  0.50000  Biso   1.000  Nb
  Nb3      1.0000 0.50000  0.00000  0.00000  Biso   1.000  Nb
  Nb4      1.0000 0.00000  0.50000  0.00000  Biso   1.000  Nb
  Ta1      1.0000 0.14341  0.14341  0.49966  Biso   1.000  Ta
  Ta2      1.0000 0.64375  0.64375  0.50034  Biso   1.000  Ta
  Ta3      1.0000 0.64375  0.14341  0.00000  Biso   1.000  Ta
  Ta4      1.0000 0.14341  0.64375  1.00000  Biso   1.000  Ta
  Ta5      1.0000 0.85659  0.85659  0.50034  Biso   1.000  Ta
  Ta6      1.0000 0.35625  0.35625  0.49966  Biso   1.000  Ta
  Ta7      1.0000 0.35625  0.85659  0.00000  Biso   1.000  Ta
  Ta8      1.0000 0.85659  0.35625  0.00000  Biso   1.000  Ta
  O1       1.0000 0.75646  0.00646  0.25000  Biso   1.000  O
  O2       1.0000 0.24354  0.49354  0.25000  Biso   1.000  O
  O3       1.0000 0.24354  0.99354  0.75000  Biso   1.000  O
  O4       1.0000 0.75646  0.50646  0.75000  Biso   1.000  O
  O5       1.0000 0.99354  0.24354  0.75000  Biso   1.000  O
  O6       1.0000 0.50646  0.75646  0.75000  Biso   1.000  O
  O7       1.0000 0.49354  0.24354  0.25000  Biso   1.000  O
  O8       1.0000 0.00646  0.75646  0.25000  Biso   1.000  O
  O9       1.0000 0.07016  0.07016  0.51008  Biso   1.000  O
  O10      1.0000 0.56008  0.56008  0.48992  Biso   1.000  O
  O11      1.0000 0.56008  0.07016  0.00000  Biso   1.000  O
  O12      1.0000 0.07016  0.56008  0.00000  Biso   1.000  O
  O13      1.0000 0.92984  0.92984  0.48992  Biso   1.000  O
  O14      1.0000 0.43992  0.43992  0.51008  Biso   1.000  O
  O15      1.0000 0.43992  0.92984  0.00000  Biso   1.000  O
  O16      1.0000 0.92984  0.43992  0.00000  Biso   1.000  O
  O17      1.0000 0.87840  0.12778  0.24938  Biso   1.000  O
  O18      1.0000 0.38396  0.63458  0.25062  Biso   1.000  O
  O19      1.0000 0.38396  0.13335  0.74938  Biso   1.000  O
  O20      1.0000 0.87840  0.62901  0.75062  Biso   1.000  O
  O21      1.0000 0.12160  0.87222  0.75062  Biso   1.000  O
  O22      1.0000 0.61604  0.36542  0.74938  Biso   1.000  O
  O23      1.0000 0.61604  0.86665  0.25062  Biso   1.000  O
  O24      1.0000 0.12160  0.37099  0.24938  Biso   1.000  O
  O25      1.0000 0.87222  0.12160  0.75062  Biso   1.000  O
  O26      1.0000 0.36542  0.61604  0.74938  Biso   1.000  O
  O27      1.0000 0.37099  0.12160  0.24938  Biso   1.000  O
  O28      1.0000 0.86665  0.61604  0.25062  Biso   1.000  O
  O29      1.0000 0.13335  0.38396  0.74938  Biso   1.000  O
  O30      1.0000 0.62901  0.87840  0.75062  Biso   1.000  O
  O31      1.0000 0.63458  0.38396  0.25062  Biso   1.000  O
  O32      1.0000 0.12778  0.87840  0.24938  Biso   1.000  O
  O33      1.0000 0.20082  0.20082  0.49790  Biso   1.000  O
  O34      1.0000 0.70292  0.70292  0.50210  Biso   1.000  O
  O35      1.0000 0.70292  0.20082  0.00000  Biso   1.000  O
  O36      1.0000 0.20082  0.70292  0.00000  Biso   1.000  O
  O37      1.0000 0.79918  0.79918  0.50210  Biso   1.000  O
  O38      1.0000 0.29708  0.29708  0.49790  Biso   1.000  O
  O39      1.0000 0.29708  0.79918  1.00000  Biso   1.000  O
  O40      1.0000 0.79918  0.29708  0.00000  Biso   1.000  O
