data_image0
_cell_length_a       3.9264
_cell_length_b       30.3622
_cell_length_c       7.8528
_cell_angle_alpha    90
_cell_angle_beta     90
_cell_angle_gamma    90

_symmetry_space_group_name_H-M    "P 1"
_symmetry_int_tables_number       1

loop_
  _symmetry_equiv_pos_as_xyz
  'x, y, z'

loop_
  _atom_site_label
  _atom_site_occupancy
  _atom_site_fract_x
  _atom_site_fract_y
  _atom_site_fract_z
  _atom_site_thermal_displace_type
  _atom_site_B_iso_or_equiv
  _atom_site_type_symbol
  K1       1.0000 0.00000  0.50000  0.00000  Biso   1.000  K
  K2       1.0000 0.00000  0.00000  0.00000  Biso   1.000  K
  K3       1.0000 0.00000  0.50000  0.50000  Biso   1.000  K
  K4       1.0000 0.00000  0.00000  0.50000  Biso   1.000  K
  Pb1      1.0000 0.00145  0.67750  0.00072  Biso   1.000  Pb
  Pb2      1.0000 0.99855  0.17576  0.99928  Biso   1.000  Pb
  Pb3      1.0000 0.00145  0.67576  0.50072  Biso   1.000  Pb
  Pb4      1.0000 0.99855  0.17750  0.49928  Biso   1.000  Pb
  Pb5      1.0000 0.00145  0.82250  0.50072  Biso   1.000  Pb
  Pb6      1.0000 0.99855  0.32424  0.49928  Biso   1.000  Pb
  Pb7      1.0000 0.00145  0.82424  0.00072  Biso   1.000  Pb
  Pb8      1.0000 0.99855  0.32250  0.99928  Biso   1.000  Pb
  Nb1      1.0000 0.50000  0.75000  0.75000  Biso   1.000  Nb
  Nb2      1.0000 0.50000  0.25000  0.75000  Biso   1.000  Nb
  Nb3      1.0000 0.50000  0.75000  0.25000  Biso   1.000  Nb
  Nb4      1.0000 0.50000  0.25000  0.25000  Biso   1.000  Nb
  Ta1      1.0000 0.50602  0.60642  0.75318  Biso   1.000  Ta
  Ta2      1.0000 0.49398  0.10642  0.74682  Biso   1.000  Ta
  Ta3      1.0000 0.50602  0.60642  0.25284  Biso   1.000  Ta
  Ta4      1.0000 0.49398  0.10642  0.24716  Biso   1.000  Ta
  Ta5      1.0000 0.50602  0.89358  0.75284  Biso   1.000  Ta
  Ta6      1.0000 0.49398  0.39358  0.74716  Biso   1.000  Ta
  Ta7      1.0000 0.50602  0.89358  0.25318  Biso   1.000  Ta
  Ta8      1.0000 0.49398  0.39358  0.24682  Biso   1.000  Ta
  O1       1.0000 0.50725  0.74354  0.00195  Biso   1.000  O
  O2       1.0000 0.49275  0.25646  0.99805  Biso   1.000  O
  O3       1.0000 0.50725  0.75646  0.50195  Biso   1.000  O
  O4       1.0000 0.49275  0.24354  0.49805  Biso   1.000  O
  O5       1.0000 0.00390  0.75000  0.75363  Biso   1.000  O
  O6       1.0000 0.99610  0.25000  0.74637  Biso   1.000  O
  O7       1.0000 0.00390  0.75000  0.25363  Biso   1.000  O
  O8       1.0000 0.99610  0.25000  0.24637  Biso   1.000  O
  O9       1.0000 0.50451  0.68488  0.74722  Biso   1.000  O
  O10      1.0000 0.49549  0.18488  0.75278  Biso   1.000  O
  O11      1.0000 0.50451  0.68488  0.25729  Biso   1.000  O
  O12      1.0000 0.49549  0.18488  0.24271  Biso   1.000  O
  O13      1.0000 0.50451  0.81512  0.75729  Biso   1.000  O
  O14      1.0000 0.49549  0.31512  0.74271  Biso   1.000  O
  O15      1.0000 0.50451  0.81512  0.24722  Biso   1.000  O
  O16      1.0000 0.49549  0.31512  0.25278  Biso   1.000  O
  O17      1.0000 0.50281  0.62160  0.00121  Biso   1.000  O
  O18      1.0000 0.49719  0.11604  0.99879  Biso   1.000  O
  O19      1.0000 0.50281  0.61604  0.50121  Biso   1.000  O
  O20      1.0000 0.49719  0.12160  0.49879  Biso   1.000  O
  O21      1.0000 0.50281  0.87840  0.50121  Biso   1.000  O
  O22      1.0000 0.49719  0.38396  0.49879  Biso   1.000  O
  O23      1.0000 0.50281  0.88396  0.00121  Biso   1.000  O
  O24      1.0000 0.49719  0.37840  0.99879  Biso   1.000  O
  O25      1.0000 0.00242  0.88118  0.75079  Biso   1.000  O
  O26      1.0000 0.99758  0.38118  0.74921  Biso   1.000  O
  O27      1.0000 0.00242  0.88118  0.25202  Biso   1.000  O
  O28      1.0000 0.99758  0.38118  0.24798  Biso   1.000  O
  O29      1.0000 0.00242  0.61882  0.75202  Biso   1.000  O
  O30      1.0000 0.99758  0.11882  0.74798  Biso   1.000  O
  O31      1.0000 0.00242  0.61882  0.25079  Biso   1.000  O
  O32      1.0000 0.99758  0.11882  0.24921  Biso   1.000  O
  O33      1.0000 0.50247  0.54813  0.75229  Biso   1.000  O
  O34      1.0000 0.49753  0.04813  0.74771  Biso   1.000  O
  O35      1.0000 0.50247  0.54813  0.25019  Biso   1.000  O
  O36      1.0000 0.49753  0.04813  0.24981  Biso   1.000  O
  O37      1.0000 0.50247  0.95187  0.75019  Biso   1.000  O
  O38      1.0000 0.49753  0.45187  0.74981  Biso   1.000  O
  O39      1.0000 0.50247  0.95187  0.25229  Biso   1.000  O
  O40      1.0000 0.49753  0.45187  0.24771  Biso   1.000  O
