data_image0
_cell_length_a       16.1647
_cell_length_b       7.8528
_cell_length_c       16.1647
_cell_angle_alpha    75.9423
_cell_angle_beta     28.1154
_cell_angle_gamma    75.9423

_symmetry_space_group_name_H-M    "P 1"
_symmetry_int_tables_number       1

loop_
  _symmetry_equiv_pos_as_xyz
  'x, y, z'

loop_
  _atom_site_label
  _atom_site_occupancy
  _atom_site_fract_x
  _atom_site_fract_y
  _atom_site_fract_z
  _atom_site_thermal_displace_type
  _atom_site_B_iso_or_equiv
  _atom_site_type_symbol
  K1       1.0000 0.00565  0.00565  0.99435  Biso   1.000  K
  K2       1.0000 0.50565  0.50565  0.49435  Biso   1.000  K
  K3       1.0000 0.49435  0.99435  0.50565  Biso   1.000  K
  K4       1.0000 0.99435  0.49435  0.00565  Biso   1.000  K
  Pb1      1.0000 0.81977  0.17650  0.82350  Biso   1.000  Pb
  Pb2      1.0000 0.32324  0.67303  0.32697  Biso   1.000  Pb
  Pb3      1.0000 0.32523  0.17849  0.32151  Biso   1.000  Pb
  Pb4      1.0000 0.82523  0.67849  0.82151  Biso   1.000  Pb
  Pb5      1.0000 0.17849  0.32523  0.17477  Biso   1.000  Pb
  Pb6      1.0000 0.67849  0.82523  0.67477  Biso   1.000  Pb
  Pb7      1.0000 0.67303  0.32324  0.67676  Biso   1.000  Pb
  Pb8      1.0000 0.17650  0.81977  0.18023  Biso   1.000  Pb
  Nb1      1.0000 0.49995  0.49995  0.00005  Biso   1.000  Nb
  Nb2      1.0000 0.99995  0.99995  0.50005  Biso   1.000  Nb
  Nb3      1.0000 0.00005  0.50005  0.49995  Biso   1.000  Nb
  Nb4      1.0000 0.50005  0.00005  0.99995  Biso   1.000  Nb
  Ta1      1.0000 0.64462  0.35712  0.14254  Biso   1.000  Ta
  Ta2      1.0000 0.14428  0.85746  0.64288  Biso   1.000  Ta
  Ta3      1.0000 0.14254  0.35538  0.64462  Biso   1.000  Ta
  Ta4      1.0000 0.64288  0.85572  0.14428  Biso   1.000  Ta
  Ta5      1.0000 0.35712  0.64462  0.85572  Biso   1.000  Ta
  Ta6      1.0000 0.85746  0.14428  0.35538  Biso   1.000  Ta
  Ta7      1.0000 0.85572  0.64288  0.35712  Biso   1.000  Ta
  Ta8      1.0000 0.35538  0.14254  0.85746  Biso   1.000  Ta
  O1       1.0000 0.75646  0.49354  0.75646  Biso   1.000  O
  O2       1.0000 0.24354  0.00646  0.24354  Biso   1.000  O
  O3       1.0000 0.24354  0.50646  0.24354  Biso   1.000  O
  O4       1.0000 0.75646  0.99354  0.75646  Biso   1.000  O
  O5       1.0000 0.49354  0.75646  0.99354  Biso   1.000  O
  O6       1.0000 0.00646  0.24354  0.50646  Biso   1.000  O
  O7       1.0000 0.99354  0.75646  0.49354  Biso   1.000  O
  O8       1.0000 0.50646  0.24354  0.00646  Biso   1.000  O
  O9       1.0000 0.55922  0.43905  0.07102  Biso   1.000  O
  O10      1.0000 0.06929  0.92898  0.56095  Biso   1.000  O
  O11      1.0000 0.07102  0.44078  0.55922  Biso   1.000  O
  O12      1.0000 0.56095  0.93071  0.06929  Biso   1.000  O
  O13      1.0000 0.43905  0.55922  0.93071  Biso   1.000  O
  O14      1.0000 0.92898  0.06929  0.44078  Biso   1.000  O
  O15      1.0000 0.93071  0.56095  0.43905  Biso   1.000  O
  O16      1.0000 0.44078  0.07102  0.92898  Biso   1.000  O
  O17      1.0000 0.87709  0.37229  0.87709  Biso   1.000  O
  O18      1.0000 0.38266  0.86796  0.38266  Biso   1.000  O
  O19      1.0000 0.38527  0.36412  0.38527  Biso   1.000  O
  O20      1.0000 0.87970  0.87092  0.87970  Biso   1.000  O
  O21      1.0000 0.12030  0.63032  0.12030  Biso   1.000  O
  O22      1.0000 0.61473  0.13465  0.61473  Biso   1.000  O
  O23      1.0000 0.61734  0.63328  0.61734  Biso   1.000  O
  O24      1.0000 0.12291  0.12648  0.12291  Biso   1.000  O
  O25      1.0000 0.37229  0.87709  0.87352  Biso   1.000  O
  O26      1.0000 0.86796  0.38266  0.36672  Biso   1.000  O
  O27      1.0000 0.87092  0.87970  0.36968  Biso   1.000  O
  O28      1.0000 0.36412  0.38527  0.86535  Biso   1.000  O
  O29      1.0000 0.63328  0.61734  0.13204  Biso   1.000  O
  O30      1.0000 0.12648  0.12291  0.62771  Biso   1.000  O
  O31      1.0000 0.13465  0.61473  0.63588  Biso   1.000  O
  O32      1.0000 0.63032  0.12030  0.12908  Biso   1.000  O
  O33      1.0000 0.70526  0.29943  0.19848  Biso   1.000  O
  O34      1.0000 0.20317  0.80152  0.70057  Biso   1.000  O
  O35      1.0000 0.19848  0.29474  0.70526  Biso   1.000  O
  O36      1.0000 0.70057  0.79683  0.20317  Biso   1.000  O
  O37      1.0000 0.29943  0.70526  0.79683  Biso   1.000  O
  O38      1.0000 0.80152  0.20317  0.29474  Biso   1.000  O
  O39      1.0000 0.79683  0.70057  0.29943  Biso   1.000  O
  O40      1.0000 0.29474  0.19848  0.80152  Biso   1.000  O
