data_image0
_cell_length_a       16.1647
_cell_length_b       16.1647
_cell_length_c       16.1647
_cell_angle_alpha    151.885
_cell_angle_beta     151.885
_cell_angle_gamma    40.1819

_symmetry_space_group_name_H-M    "P 1"
_symmetry_int_tables_number       1

loop_
  _symmetry_equiv_pos_as_xyz
  'x, y, z'

loop_
  _atom_site_label
  _atom_site_occupancy
  _atom_site_fract_x
  _atom_site_fract_y
  _atom_site_fract_z
  _atom_site_thermal_displace_type
  _atom_site_B_iso_or_equiv
  _atom_site_type_symbol
  K1       1.0000 0.00886  0.75886  0.25000  Biso   1.000  K
  K2       1.0000 0.49114  0.24114  0.25000  Biso   1.000  K
  K3       1.0000 0.50886  0.75886  0.75000  Biso   1.000  K
  K4       1.0000 0.99114  0.24114  0.75000  Biso   1.000  K
  Pb1      1.0000 0.82302  0.57302  0.25000  Biso   1.000  Pb
  Pb2      1.0000 0.32372  0.07372  0.25000  Biso   1.000  Pb
  Pb3      1.0000 0.32475  0.57475  0.75000  Biso   1.000  Pb
  Pb4      1.0000 0.82199  0.07199  0.75000  Biso   1.000  Pb
  Pb5      1.0000 0.17698  0.42698  0.75000  Biso   1.000  Pb
  Pb6      1.0000 0.67628  0.92628  0.75000  Biso   1.000  Pb
  Pb7      1.0000 0.67525  0.42525  0.25000  Biso   1.000  Pb
  Pb8      1.0000 0.17801  0.92801  0.25000  Biso   1.000  Pb
  Nb1      1.0000 1.00000  0.74973  0.74973  Biso   1.000  Nb
  Nb2      1.0000 0.50000  0.25027  0.75027  Biso   1.000  Nb
  Nb3      1.0000 0.50000  0.74973  0.24973  Biso   1.000  Nb
  Nb4      1.0000 0.00000  0.25027  0.25027  Biso   1.000  Nb
  Ta1      1.0000 0.14341  0.89437  0.75062  Biso   1.000  Ta
  Ta2      1.0000 0.64375  0.39279  0.74938  Biso   1.000  Ta
  Ta3      1.0000 0.64375  0.89437  0.25096  Biso   1.000  Ta
  Ta4      1.0000 0.14341  0.39279  0.24904  Biso   1.000  Ta
  Ta5      1.0000 0.85659  0.60721  0.75096  Biso   1.000  Ta
  Ta6      1.0000 0.35625  0.10563  0.74904  Biso   1.000  Ta
  Ta7      1.0000 0.35625  0.60721  0.25062  Biso   1.000  Ta
  Ta8      1.0000 0.85659  0.10563  0.24938  Biso   1.000  Ta
  O1       1.0000 0.75646  0.75657  0.50011  Biso   1.000  O
  O2       1.0000 0.24354  0.24343  0.49989  Biso   1.000  O
  O3       1.0000 0.24354  0.74365  0.00011  Biso   1.000  O
  O4       1.0000 0.75646  0.25635  0.99989  Biso   1.000  O
  O5       1.0000 0.00000  0.00000  0.00000  Biso   1.000  O
  O6       1.0000 0.50000  0.50000  0.00000  Biso   1.000  O
  O7       1.0000 0.50000  0.00000  0.50000  Biso   1.000  O
  O8       1.0000 1.00000  0.50000  0.50000  Biso   1.000  O
  O9       1.0000 0.07016  0.81422  0.75414  Biso   1.000  O
  O10      1.0000 0.56008  0.31602  0.74586  Biso   1.000  O
  O11      1.0000 0.56008  0.81422  0.24406  Biso   1.000  O
  O12      1.0000 0.07016  0.31602  0.25594  Biso   1.000  O
  O13      1.0000 0.92984  0.68398  0.74406  Biso   1.000  O
  O14      1.0000 0.43992  0.18578  0.75594  Biso   1.000  O
  O15      1.0000 0.43992  0.68398  0.25414  Biso   1.000  O
  O16      1.0000 0.92984  0.18578  0.24586  Biso   1.000  O
  O17      1.0000 0.87840  0.87860  0.50020  Biso   1.000  O
  O18      1.0000 0.38396  0.38376  0.49980  Biso   1.000  O
  O19      1.0000 0.38396  0.88417  0.00020  Biso   1.000  O
  O20      1.0000 0.87840  0.37819  0.99980  Biso   1.000  O
  O21      1.0000 0.12160  0.62181  0.00020  Biso   1.000  O
  O22      1.0000 0.61604  0.11583  0.99980  Biso   1.000  O
  O23      1.0000 0.61604  0.61624  0.50020  Biso   1.000  O
  O24      1.0000 0.12160  0.12140  0.49980  Biso   1.000  O
  O25      1.0000 0.87131  0.87070  0.00062  Biso   1.000  O
  O26      1.0000 0.36633  0.36694  0.99938  Biso   1.000  O
  O27      1.0000 0.37008  0.87070  0.49938  Biso   1.000  O
  O28      1.0000 0.86756  0.36694  0.50062  Biso   1.000  O
  O29      1.0000 0.12869  0.12930  0.99938  Biso   1.000  O
  O30      1.0000 0.63367  0.63306  0.00062  Biso   1.000  O
  O31      1.0000 0.62992  0.12930  0.50062  Biso   1.000  O
  O32      1.0000 0.13244  0.63306  0.49938  Biso   1.000  O
  O33      1.0000 0.20082  0.95529  0.75237  Biso   1.000  O
  O34      1.0000 0.70292  0.44845  0.74763  Biso   1.000  O
  O35      1.0000 0.70292  0.95529  0.25447  Biso   1.000  O
  O36      1.0000 0.20082  0.44845  0.24553  Biso   1.000  O
  O37      1.0000 0.79918  0.55155  0.75447  Biso   1.000  O
  O38      1.0000 0.29708  0.04471  0.74553  Biso   1.000  O
  O39      1.0000 0.29708  0.55155  0.25237  Biso   1.000  O
  O40      1.0000 0.79918  0.04471  0.24763  Biso   1.000  O
