data_image0
_cell_length_a       16.1647
_cell_length_b       16.1647
_cell_length_c       7.8528
_cell_angle_alpha    104.058
_cell_angle_beta     104.058
_cell_angle_gamma    139.818

_symmetry_space_group_name_H-M    "P 1"
_symmetry_int_tables_number       1

loop_
  _symmetry_equiv_pos_as_xyz
  'x, y, z'

loop_
  _atom_site_label
  _atom_site_occupancy
  _atom_site_fract_x
  _atom_site_fract_y
  _atom_site_fract_z
  _atom_site_thermal_displace_type
  _atom_site_B_iso_or_equiv
  _atom_site_type_symbol
  K1       1.0000 0.50000  0.00000  0.50000  Biso   1.000  K
  K2       1.0000 0.00000  0.50000  0.50000  Biso   1.000  K
  K3       1.0000 0.50000  0.00000  0.00000  Biso   1.000  K
  K4       1.0000 0.00000  0.50000  0.00000  Biso   1.000  K
  Pb1      1.0000 0.67515  0.82016  0.50000  Biso   1.000  Pb
  Pb2      1.0000 0.17342  0.32189  0.50000  Biso   1.000  Pb
  Pb3      1.0000 0.67811  0.82658  0.00000  Biso   1.000  Pb
  Pb4      1.0000 0.17984  0.32485  1.00000  Biso   1.000  Pb
  Pb5      1.0000 0.82016  0.67515  0.00000  Biso   1.000  Pb
  Pb6      1.0000 0.32189  0.17342  0.00000  Biso   1.000  Pb
  Pb7      1.0000 0.82658  0.67811  0.50000  Biso   1.000  Pb
  Pb8      1.0000 0.32485  0.17984  0.50000  Biso   1.000  Pb
  Nb1      1.0000 0.00000  0.00000  0.50000  Biso   1.000  Nb
  Nb2      1.0000 0.50000  0.50000  0.50000  Biso   1.000  Nb
  Nb3      1.0000 0.00000  0.00000  0.00000  Biso   1.000  Nb
  Nb4      1.0000 0.50000  0.50000  0.00000  Biso   1.000  Nb
  Ta1      1.0000 0.85589  0.14305  0.50017  Biso   1.000  Ta
  Ta2      1.0000 0.35589  0.64305  0.49983  Biso   1.000  Ta
  Ta3      1.0000 0.85695  0.14411  0.99983  Biso   1.000  Ta
  Ta4      1.0000 0.35695  0.64411  0.00017  Biso   1.000  Ta
  Ta5      1.0000 0.14411  0.85695  0.49983  Biso   1.000  Ta
  Ta6      1.0000 0.64411  0.35695  0.50017  Biso   1.000  Ta
  Ta7      1.0000 0.14305  0.85589  0.00017  Biso   1.000  Ta
  Ta8      1.0000 0.64305  0.35589  0.99983  Biso   1.000  Ta
  O1       1.0000 0.99024  0.00976  0.75000  Biso   1.000  O
  O2       1.0000 0.50315  0.49685  0.75000  Biso   1.000  O
  O3       1.0000 0.00976  0.99024  0.25000  Biso   1.000  O
  O4       1.0000 0.49685  0.50315  0.25000  Biso   1.000  O
  O5       1.0000 0.25330  0.24670  0.75000  Biso   1.000  O
  O6       1.0000 0.75330  0.74670  0.75000  Biso   1.000  O
  O7       1.0000 0.24670  0.25330  0.25000  Biso   1.000  O
  O8       1.0000 0.74670  0.75330  0.25000  Biso   1.000  O
  O9       1.0000 0.93804  0.06828  0.49496  Biso   1.000  O
  O10      1.0000 0.43804  0.56828  0.50504  Biso   1.000  O
  O11      1.0000 0.93172  0.06196  0.00504  Biso   1.000  O
  O12      1.0000 0.43172  0.56196  0.99496  Biso   1.000  O
  O13      1.0000 0.06196  0.93172  0.50504  Biso   1.000  O
  O14      1.0000 0.56196  0.43172  0.49496  Biso   1.000  O
  O15      1.0000 0.06828  0.93804  0.99496  Biso   1.000  O
  O16      1.0000 0.56828  0.43804  0.00504  Biso   1.000  O
  O17      1.0000 0.87346  0.12654  0.75000  Biso   1.000  O
  O18      1.0000 0.36789  0.63211  0.75000  Biso   1.000  O
  O19      1.0000 0.86418  0.13582  0.25000  Biso   1.000  O
  O20      1.0000 0.36975  0.63025  0.25000  Biso   1.000  O
  O21      1.0000 0.12654  0.87346  0.25000  Biso   1.000  O
  O22      1.0000 0.63211  0.36789  0.25000  Biso   1.000  O
  O23      1.0000 0.13582  0.86418  0.75000  Biso   1.000  O
  O24      1.0000 0.63025  0.36975  0.75000  Biso   1.000  O
  O25      1.0000 0.37933  0.12067  0.74938  Biso   1.000  O
  O26      1.0000 0.87933  0.62067  0.75062  Biso   1.000  O
  O27      1.0000 0.38303  0.11697  0.25062  Biso   1.000  O
  O28      1.0000 0.88303  0.61697  0.24938  Biso   1.000  O
  O29      1.0000 0.11697  0.38303  0.75062  Biso   1.000  O
  O30      1.0000 0.61697  0.88303  0.74938  Biso   1.000  O
  O31      1.0000 0.12067  0.37933  0.24938  Biso   1.000  O
  O32      1.0000 0.62067  0.87933  0.25062  Biso   1.000  O
  O33      1.0000 0.79626  0.20000  0.50105  Biso   1.000  O
  O34      1.0000 0.29626  0.70000  0.49895  Biso   1.000  O
  O35      1.0000 0.80000  0.20374  0.99895  Biso   1.000  O
  O36      1.0000 0.30000  0.70374  0.00105  Biso   1.000  O
  O37      1.0000 0.20374  0.80000  0.49895  Biso   1.000  O
  O38      1.0000 0.70374  0.30000  0.50105  Biso   1.000  O
  O39      1.0000 0.20000  0.79626  0.00105  Biso   1.000  O
  O40      1.0000 0.70000  0.29626  0.99895  Biso   1.000  O
