data_image0
_cell_length_a       7.8528
_cell_length_b       7.8528
_cell_length_c       16.1647
_cell_angle_alpha    104.058
_cell_angle_beta     104.058
_cell_angle_gamma    90

_symmetry_space_group_name_H-M    "P 1"
_symmetry_int_tables_number       1

loop_
  _symmetry_equiv_pos_as_xyz
  'x, y, z'

loop_
  _atom_site_label
  _atom_site_occupancy
  _atom_site_fract_x
  _atom_site_fract_y
  _atom_site_fract_z
  _atom_site_thermal_displace_type
  _atom_site_B_iso_or_equiv
  _atom_site_type_symbol
  K1       1.0000 0.00000  0.00000  0.50000  Biso   1.000  K
  K2       1.0000 0.50000  0.50000  0.50000  Biso   1.000  K
  K3       1.0000 0.50000  0.00000  0.50000  Biso   1.000  K
  K4       1.0000 0.00000  0.50000  0.50000  Biso   1.000  K
  Pb1      1.0000 0.81929  0.81929  0.14326  Biso   1.000  Pb
  Pb2      1.0000 0.32276  0.32276  0.15022  Biso   1.000  Pb
  Pb3      1.0000 0.32572  0.82572  0.14674  Biso   1.000  Pb
  Pb4      1.0000 0.82572  0.32572  0.14674  Biso   1.000  Pb
  Pb5      1.0000 0.17428  0.67428  0.85326  Biso   1.000  Pb
  Pb6      1.0000 0.67428  0.17428  0.85326  Biso   1.000  Pb
  Pb7      1.0000 0.67724  0.67724  0.84978  Biso   1.000  Pb
  Pb8      1.0000 0.18071  0.18071  0.85674  Biso   1.000  Pb
  Nb1      1.0000 0.50000  0.00000  0.00000  Biso   1.000  Nb
  Nb2      1.0000 0.00000  0.50000  0.00000  Biso   1.000  Nb
  Nb3      1.0000 0.00000  0.00000  0.00000  Biso   1.000  Nb
  Nb4      1.0000 0.50000  0.50000  0.00000  Biso   1.000  Nb
  Ta1      1.0000 0.64428  0.14394  0.28716  Biso   1.000  Ta
  Ta2      1.0000 0.14394  0.64428  0.28716  Biso   1.000  Ta
  Ta3      1.0000 0.14288  0.14288  0.28716  Biso   1.000  Ta
  Ta4      1.0000 0.64322  0.64322  0.28716  Biso   1.000  Ta
  Ta5      1.0000 0.35572  0.85606  0.71284  Biso   1.000  Ta
  Ta6      1.0000 0.85606  0.35572  0.71284  Biso   1.000  Ta
  Ta7      1.0000 0.85712  0.85712  0.71284  Biso   1.000  Ta
  Ta8      1.0000 0.35678  0.35678  0.71284  Biso   1.000  Ta
  O1       1.0000 0.75976  0.00976  0.01952  Biso   1.000  O
  O2       1.0000 0.24685  0.49685  0.99369  Biso   1.000  O
  O3       1.0000 0.24024  0.99024  0.98048  Biso   1.000  O
  O4       1.0000 0.75315  0.50315  0.00631  Biso   1.000  O
  O5       1.0000 0.49685  0.24685  0.99369  Biso   1.000  O
  O6       1.0000 0.00976  0.75976  0.01952  Biso   1.000  O
  O7       1.0000 0.99024  0.24024  0.98048  Biso   1.000  O
  O8       1.0000 0.50315  0.75315  0.00631  Biso   1.000  O
  O9       1.0000 0.55693  0.06700  0.13024  Biso   1.000  O
  O10      1.0000 0.06700  0.55693  0.13024  Biso   1.000  O
  O11      1.0000 0.07331  0.07331  0.13024  Biso   1.000  O
  O12      1.0000 0.56324  0.56324  0.13024  Biso   1.000  O
  O13      1.0000 0.44307  0.93300  0.86976  Biso   1.000  O
  O14      1.0000 0.93300  0.44307  0.86976  Biso   1.000  O
  O15      1.0000 0.92669  0.92669  0.86976  Biso   1.000  O
  O16      1.0000 0.43676  0.43676  0.86976  Biso   1.000  O
  O17      1.0000 0.87654  0.12593  0.25308  Biso   1.000  O
  O18      1.0000 0.38211  0.63272  0.26422  Biso   1.000  O
  O19      1.0000 0.38582  0.13520  0.27164  Biso   1.000  O
  O20      1.0000 0.88025  0.63087  0.26050  Biso   1.000  O
  O21      1.0000 0.12346  0.87407  0.74692  Biso   1.000  O
  O22      1.0000 0.61789  0.36728  0.73578  Biso   1.000  O
  O23      1.0000 0.61418  0.86480  0.72836  Biso   1.000  O
  O24      1.0000 0.11975  0.36913  0.73950  Biso   1.000  O
  O25      1.0000 0.36913  0.11975  0.73950  Biso   1.000  O
  O26      1.0000 0.86480  0.61418  0.72836  Biso   1.000  O
  O27      1.0000 0.87407  0.12346  0.74692  Biso   1.000  O
  O28      1.0000 0.36728  0.61789  0.73578  Biso   1.000  O
  O29      1.0000 0.63272  0.38211  0.26422  Biso   1.000  O
  O30      1.0000 0.12593  0.87654  0.25308  Biso   1.000  O
  O31      1.0000 0.13520  0.38582  0.27164  Biso   1.000  O
  O32      1.0000 0.63087  0.88025  0.26050  Biso   1.000  O
  O33      1.0000 0.70479  0.20269  0.40374  Biso   1.000  O
  O34      1.0000 0.20269  0.70479  0.40374  Biso   1.000  O
  O35      1.0000 0.19895  0.19895  0.40374  Biso   1.000  O
  O36      1.0000 0.70105  0.70105  0.40374  Biso   1.000  O
  O37      1.0000 0.29521  0.79731  0.59626  Biso   1.000  O
  O38      1.0000 0.79731  0.29521  0.59626  Biso   1.000  O
  O39      1.0000 0.80105  0.80105  0.59626  Biso   1.000  O
  O40      1.0000 0.29895  0.29895  0.59626  Biso   1.000  O
