data_image0
_cell_length_a       3.9264
_cell_length_b       15.6806
_cell_length_c       15.6806
_cell_angle_alpha    150.998
_cell_angle_beta     90
_cell_angle_gamma    90

_symmetry_space_group_name_H-M    "P 1"
_symmetry_int_tables_number       1

loop_
  _symmetry_equiv_pos_as_xyz
  'x, y, z'

loop_
  _atom_site_label
  _atom_site_occupancy
  _atom_site_fract_x
  _atom_site_fract_y
  _atom_site_fract_z
  _atom_site_thermal_displace_type
  _atom_site_B_iso_or_equiv
  _atom_site_type_symbol
  K1       1.0000 0.50000  0.00000  0.00000  Biso   1.000  K
  K2       1.0000 0.50000  0.50000  0.50000  Biso   1.000  K
  Pb1      1.0000 0.50000  0.81991  0.17491  Biso   1.000  Pb
  Pb2      1.0000 0.50000  0.32165  0.67317  Biso   1.000  Pb
  Pb3      1.0000 0.50000  0.17491  0.81991  Biso   1.000  Pb
  Pb4      1.0000 0.50000  0.67317  0.32165  Biso   1.000  Pb
  Nb1      1.0000 0.00000  0.49748  0.99748  Biso   1.000  Nb
  Nb2      1.0000 0.00000  0.99748  0.49748  Biso   1.000  Nb
  Ta1      1.0000 0.00000  0.64558  0.85842  Biso   1.000  Ta
  Ta2      1.0000 0.00000  0.14524  0.35808  Biso   1.000  Ta
  Ta3      1.0000 0.00000  0.35808  0.14524  Biso   1.000  Ta
  Ta4      1.0000 0.00000  0.85842  0.64558  Biso   1.000  Ta
  O1       1.0000 0.00000  0.75942  0.24651  Biso   1.000  O
  O2       1.0000 0.00000  0.24651  0.75942  Biso   1.000  O
  O3       1.0000 0.50000  0.50628  0.00628  Biso   1.000  O
  O4       1.0000 0.50000  0.00628  0.50628  Biso   1.000  O
  O5       1.0000 0.00000  0.56354  0.93330  Biso   1.000  O
  O6       1.0000 0.00000  0.07362  0.44338  Biso   1.000  O
  O7       1.0000 0.00000  0.44338  0.07362  Biso   1.000  O
  O8       1.0000 0.00000  0.93330  0.56354  Biso   1.000  O
  O9       1.0000 0.00000  0.87986  0.12306  Biso   1.000  O
  O10      1.0000 0.00000  0.38542  0.61750  Biso   1.000  O
  O11      1.0000 0.00000  0.12306  0.87986  Biso   1.000  O
  O12      1.0000 0.00000  0.61750  0.38542  Biso   1.000  O
  O13      1.0000 0.50000  0.37009  0.13245  Biso   1.000  O
  O14      1.0000 0.50000  0.87132  0.63368  Biso   1.000  O
  O15      1.0000 0.50000  0.63368  0.87132  Biso   1.000  O
  O16      1.0000 0.50000  0.13245  0.37009  Biso   1.000  O
  O17      1.0000 0.00000  0.70403  0.80029  Biso   1.000  O
  O18      1.0000 0.00000  0.20193  0.29819  Biso   1.000  O
  O19      1.0000 0.00000  0.29819  0.20193  Biso   1.000  O
  O20      1.0000 0.00000  0.80029  0.70403  Biso   1.000  O
