data_image0
_cell_length_a       15.6806
_cell_length_b       15.6806
_cell_length_c       7.8528
_cell_angle_alpha    90
_cell_angle_beta     90
_cell_angle_gamma    150.998

_symmetry_space_group_name_H-M    "P 1"
_symmetry_int_tables_number       1

loop_
  _symmetry_equiv_pos_as_xyz
  'x, y, z'

loop_
  _atom_site_label
  _atom_site_occupancy
  _atom_site_fract_x
  _atom_site_fract_y
  _atom_site_fract_z
  _atom_site_thermal_displace_type
  _atom_site_B_iso_or_equiv
  _atom_site_type_symbol
  K1       1.0000 0.49414  0.50586  0.75000  Biso   1.000  K
  K2       1.0000 0.99414  0.00586  0.75000  Biso   1.000  K
  K3       1.0000 0.50586  0.49414  0.25000  Biso   1.000  K
  K4       1.0000 0.00586  0.99414  0.25000  Biso   1.000  K
  Pb1      1.0000 0.67704  0.32296  0.75000  Biso   1.000  Pb
  Pb2      1.0000 0.17530  0.82470  0.75000  Biso   1.000  Pb
  Pb3      1.0000 0.67796  0.32204  0.25000  Biso   1.000  Pb
  Pb4      1.0000 0.17622  0.82378  0.25000  Biso   1.000  Pb
  Pb5      1.0000 0.32204  0.67796  0.75000  Biso   1.000  Pb
  Pb6      1.0000 0.82378  0.17622  0.75000  Biso   1.000  Pb
  Pb7      1.0000 0.32296  0.67704  0.25000  Biso   1.000  Pb
  Pb8      1.0000 0.82470  0.17530  0.25000  Biso   1.000  Pb
  Nb1      1.0000 0.50000  0.00000  0.50000  Biso   1.000  Nb
  Nb2      1.0000 0.00000  0.50000  0.50000  Biso   1.000  Nb
  Nb3      1.0000 0.50000  0.00000  0.00000  Biso   1.000  Nb
  Nb4      1.0000 0.00000  0.50000  0.00000  Biso   1.000  Nb
  Ta1      1.0000 0.35659  0.14375  0.49927  Biso   1.000  Ta
  Ta2      1.0000 0.85625  0.64341  0.49927  Biso   1.000  Ta
  Ta3      1.0000 0.35659  0.14375  0.00073  Biso   1.000  Ta
  Ta4      1.0000 0.85625  0.64341  0.00073  Biso   1.000  Ta
  Ta5      1.0000 0.64341  0.85625  0.50073  Biso   1.000  Ta
  Ta6      1.0000 0.14375  0.35659  0.50073  Biso   1.000  Ta
  Ta7      1.0000 0.64341  0.85625  0.99927  Biso   1.000  Ta
  Ta8      1.0000 0.14375  0.35659  0.99927  Biso   1.000  Ta
  O1       1.0000 0.74354  0.25646  0.50000  Biso   1.000  O
  O2       1.0000 0.25646  0.74354  0.50000  Biso   1.000  O
  O3       1.0000 0.74354  0.25646  0.00000  Biso   1.000  O
  O4       1.0000 0.25646  0.74354  0.00000  Biso   1.000  O
  O5       1.0000 0.49678  0.00322  0.25000  Biso   1.000  O
  O6       1.0000 0.99678  0.50322  0.25000  Biso   1.000  O
  O7       1.0000 0.50322  0.99678  0.75000  Biso   1.000  O
  O8       1.0000 0.00322  0.49678  0.75000  Biso   1.000  O
  O9       1.0000 0.42984  0.06008  0.50292  Biso   1.000  O
  O10      1.0000 0.93992  0.57016  0.50292  Biso   1.000  O
  O11      1.0000 0.42984  0.06008  0.99708  Biso   1.000  O
  O12      1.0000 0.93992  0.57016  0.99708  Biso   1.000  O
  O13      1.0000 0.57016  0.93992  0.49708  Biso   1.000  O
  O14      1.0000 0.06008  0.42984  0.49708  Biso   1.000  O
  O15      1.0000 0.57016  0.93992  0.00292  Biso   1.000  O
  O16      1.0000 0.06008  0.42984  0.00292  Biso   1.000  O
  O17      1.0000 0.62160  0.37840  0.49963  Biso   1.000  O
  O18      1.0000 0.11604  0.88396  0.49963  Biso   1.000  O
  O19      1.0000 0.62160  0.37840  0.00037  Biso   1.000  O
  O20      1.0000 0.11604  0.88396  0.00037  Biso   1.000  O
  O21      1.0000 0.37840  0.62160  0.50037  Biso   1.000  O
  O22      1.0000 0.88396  0.11604  0.50037  Biso   1.000  O
  O23      1.0000 0.37840  0.62160  0.99963  Biso   1.000  O
  O24      1.0000 0.88396  0.11604  0.99963  Biso   1.000  O
  O25      1.0000 0.63358  0.86519  0.25000  Biso   1.000  O
  O26      1.0000 0.13481  0.36642  0.25000  Biso   1.000  O
  O27      1.0000 0.62755  0.87122  0.75000  Biso   1.000  O
  O28      1.0000 0.12878  0.37245  0.75000  Biso   1.000  O
  O29      1.0000 0.37245  0.12878  0.25000  Biso   1.000  O
  O30      1.0000 0.87122  0.62755  0.25000  Biso   1.000  O
  O31      1.0000 0.36642  0.13481  0.75000  Biso   1.000  O
  O32      1.0000 0.86519  0.63358  0.75000  Biso   1.000  O
  O33      1.0000 0.29918  0.20292  0.49608  Biso   1.000  O
  O34      1.0000 0.79708  0.70082  0.49608  Biso   1.000  O
  O35      1.0000 0.29918  0.20292  0.00392  Biso   1.000  O
  O36      1.0000 0.79708  0.70082  0.00392  Biso   1.000  O
  O37      1.0000 0.70082  0.79708  0.50392  Biso   1.000  O
  O38      1.0000 0.20292  0.29918  0.50392  Biso   1.000  O
  O39      1.0000 0.70082  0.79708  0.99608  Biso   1.000  O
  O40      1.0000 0.20292  0.29918  0.99608  Biso   1.000  O
