data_image0
_cell_length_a       15.6806
_cell_length_b       15.6806
_cell_length_c       7.8528
_cell_angle_alpha    90
_cell_angle_beta     90
_cell_angle_gamma    150.998

_symmetry_space_group_name_H-M    "P 1"
_symmetry_int_tables_number       1

loop_
  _symmetry_equiv_pos_as_xyz
  'x, y, z'

loop_
  _atom_site_label
  _atom_site_occupancy
  _atom_site_fract_x
  _atom_site_fract_y
  _atom_site_fract_z
  _atom_site_thermal_displace_type
  _atom_site_B_iso_or_equiv
  _atom_site_type_symbol
  K1       1.0000 0.74114  0.25886  0.75000  Biso   1.000  K
  K2       1.0000 0.25886  0.74114  0.75000  Biso   1.000  K
  K3       1.0000 0.74114  0.25886  0.25000  Biso   1.000  K
  K4       1.0000 0.25886  0.74114  0.25000  Biso   1.000  K
  Pb1      1.0000 0.92274  0.07051  0.74663  Biso   1.000  Pb
  Pb2      1.0000 0.43052  0.57623  0.75337  Biso   1.000  Pb
  Pb3      1.0000 0.92949  0.07726  0.25337  Biso   1.000  Pb
  Pb4      1.0000 0.42377  0.56948  0.24663  Biso   1.000  Pb
  Pb5      1.0000 0.57623  0.43052  0.75337  Biso   1.000  Pb
  Pb6      1.0000 0.07051  0.92274  0.74663  Biso   1.000  Pb
  Pb7      1.0000 0.56948  0.42377  0.24663  Biso   1.000  Pb
  Pb8      1.0000 0.07726  0.92949  0.25337  Biso   1.000  Pb
  Nb1      1.0000 0.75059  0.75059  0.50032  Biso   1.000  Nb
  Nb2      1.0000 0.24941  0.24941  0.49968  Biso   1.000  Nb
  Nb3      1.0000 0.74995  0.74995  0.99968  Biso   1.000  Nb
  Nb4      1.0000 0.25005  0.25005  0.00032  Biso   1.000  Nb
  Ta1      1.0000 0.60469  0.89185  0.49906  Biso   1.000  Ta
  Ta2      1.0000 0.10815  0.39531  0.50094  Biso   1.000  Ta
  Ta3      1.0000 0.60657  0.89373  0.00094  Biso   1.000  Ta
  Ta4      1.0000 0.10627  0.39343  0.99906  Biso   1.000  Ta
  Ta5      1.0000 0.89185  0.60469  0.49906  Biso   1.000  Ta
  Ta6      1.0000 0.39531  0.10815  0.50094  Biso   1.000  Ta
  Ta7      1.0000 0.89373  0.60657  0.00094  Biso   1.000  Ta
  Ta8      1.0000 0.39343  0.10627  0.99906  Biso   1.000  Ta
  O1       1.0000 0.00000  0.00000  0.50000  Biso   1.000  O
  O2       1.0000 0.50000  0.50000  0.50000  Biso   1.000  O
  O3       1.0000 0.00000  0.00000  0.00000  Biso   1.000  O
  O4       1.0000 0.50000  0.50000  0.00000  Biso   1.000  O
  O5       1.0000 0.74989  0.74989  0.25000  Biso   1.000  O
  O6       1.0000 0.25011  0.25011  0.25000  Biso   1.000  O
  O7       1.0000 0.74989  0.74989  0.75000  Biso   1.000  O
  O8       1.0000 0.25011  0.25011  0.75000  Biso   1.000  O
  O9       1.0000 0.68870  0.81894  0.50292  Biso   1.000  O
  O10      1.0000 0.18106  0.31130  0.49708  Biso   1.000  O
  O11      1.0000 0.68286  0.81310  0.99708  Biso   1.000  O
  O12      1.0000 0.18690  0.31714  0.00292  Biso   1.000  O
  O13      1.0000 0.81894  0.68870  0.50292  Biso   1.000  O
  O14      1.0000 0.31130  0.18106  0.49708  Biso   1.000  O
  O15      1.0000 0.81310  0.68286  0.99708  Biso   1.000  O
  O16      1.0000 0.31714  0.18690  0.00292  Biso   1.000  O
  O17      1.0000 0.86479  0.13521  0.50000  Biso   1.000  O
  O18      1.0000 0.37285  0.62715  0.50000  Biso   1.000  O
  O19      1.0000 0.86910  0.13090  0.00000  Biso   1.000  O
  O20      1.0000 0.36854  0.63146  0.00000  Biso   1.000  O
  O21      1.0000 0.62715  0.37285  0.50000  Biso   1.000  O
  O22      1.0000 0.13521  0.86479  0.50000  Biso   1.000  O
  O23      1.0000 0.63146  0.36854  0.00000  Biso   1.000  O
  O24      1.0000 0.13090  0.86910  0.00000  Biso   1.000  O
  O25      1.0000 0.87882  0.62077  0.25000  Biso   1.000  O
  O26      1.0000 0.38354  0.11687  0.25000  Biso   1.000  O
  O27      1.0000 0.88313  0.61646  0.75000  Biso   1.000  O
  O28      1.0000 0.37923  0.12118  0.75000  Biso   1.000  O
  O29      1.0000 0.62077  0.87882  0.25000  Biso   1.000  O
  O30      1.0000 0.11687  0.38354  0.25000  Biso   1.000  O
  O31      1.0000 0.61646  0.88313  0.75000  Biso   1.000  O
  O32      1.0000 0.12118  0.37923  0.75000  Biso   1.000  O
  O33      1.0000 0.54308  0.94682  0.49837  Biso   1.000  O
  O34      1.0000 0.05318  0.45692  0.50163  Biso   1.000  O
  O35      1.0000 0.54634  0.95008  0.00163  Biso   1.000  O
  O36      1.0000 0.04992  0.45366  0.99837  Biso   1.000  O
  O37      1.0000 0.94682  0.54308  0.49837  Biso   1.000  O
  O38      1.0000 0.45692  0.05318  0.50163  Biso   1.000  O
  O39      1.0000 0.95008  0.54634  0.00163  Biso   1.000  O
  O40      1.0000 0.45366  0.04992  0.99837  Biso   1.000  O
