data_image0
_cell_length_a       7.8528
_cell_length_b       7.8528
_cell_length_c       30.3622
_cell_angle_alpha    90
_cell_angle_beta     90
_cell_angle_gamma    90

_symmetry_space_group_name_H-M    "P 1"
_symmetry_int_tables_number       1

loop_
  _symmetry_equiv_pos_as_xyz
  'x, y, z'

loop_
  _atom_site_label
  _atom_site_occupancy
  _atom_site_fract_x
  _atom_site_fract_y
  _atom_site_fract_z
  _atom_site_thermal_displace_type
  _atom_site_B_iso_or_equiv
  _atom_site_type_symbol
  K1       1.0000 0.75000  0.25000  0.48228  Biso   1.000  K
  K2       1.0000 0.75000  0.25000  0.01772  Biso   1.000  K
  K3       1.0000 0.25000  0.25000  0.50000  Biso   1.000  K
  K4       1.0000 0.25000  0.25000  0.00000  Biso   1.000  K
  K5       1.0000 0.75000  0.75000  0.50000  Biso   1.000  K
  K6       1.0000 0.75000  0.75000  0.00000  Biso   1.000  K
  K7       1.0000 0.25000  0.75000  0.51772  Biso   1.000  K
  K8       1.0000 0.25000  0.75000  0.98228  Biso   1.000  K
  Pb1      1.0000 0.74928  0.25072  0.67560  Biso   1.000  Pb
  Pb2      1.0000 0.75072  0.24928  0.17766  Biso   1.000  Pb
  Pb3      1.0000 0.24928  0.25072  0.67663  Biso   1.000  Pb
  Pb4      1.0000 0.25072  0.24928  0.17663  Biso   1.000  Pb
  Pb5      1.0000 0.74928  0.75072  0.67663  Biso   1.000  Pb
  Pb6      1.0000 0.75072  0.74928  0.17663  Biso   1.000  Pb
  Pb7      1.0000 0.24928  0.75072  0.67766  Biso   1.000  Pb
  Pb8      1.0000 0.25072  0.74928  0.17560  Biso   1.000  Pb
  Pb9      1.0000 0.24928  0.25072  0.82337  Biso   1.000  Pb
  Pb10     1.0000 0.25072  0.24928  0.32337  Biso   1.000  Pb
  Pb11     1.0000 0.74928  0.25072  0.82440  Biso   1.000  Pb
  Pb12     1.0000 0.75072  0.24928  0.32234  Biso   1.000  Pb
  Pb13     1.0000 0.24928  0.75072  0.82234  Biso   1.000  Pb
  Pb14     1.0000 0.25072  0.74928  0.32440  Biso   1.000  Pb
  Pb15     1.0000 0.74928  0.75072  0.82337  Biso   1.000  Pb
  Pb16     1.0000 0.75072  0.74928  0.32337  Biso   1.000  Pb
  Nb1      1.0000 0.50027  0.00027  0.75000  Biso   1.000  Nb
  Nb2      1.0000 0.49973  0.99973  0.25000  Biso   1.000  Nb
  Nb3      1.0000 0.99973  0.00027  0.75000  Biso   1.000  Nb
  Nb4      1.0000 0.00027  0.99973  0.25000  Biso   1.000  Nb
  Nb5      1.0000 0.50027  0.49973  0.75000  Biso   1.000  Nb
  Nb6      1.0000 0.49973  0.50027  0.25000  Biso   1.000  Nb
  Nb7      1.0000 0.99973  0.49973  0.75000  Biso   1.000  Nb
  Nb8      1.0000 0.00027  0.50027  0.25000  Biso   1.000  Nb
  Ta1      1.0000 0.49620  0.00222  0.60642  Biso   1.000  Ta
  Ta2      1.0000 0.50380  0.99778  0.10642  Biso   1.000  Ta
  Ta3      1.0000 0.99778  0.00222  0.60642  Biso   1.000  Ta
  Ta4      1.0000 0.00222  0.99778  0.10642  Biso   1.000  Ta
  Ta5      1.0000 0.49620  0.50380  0.60642  Biso   1.000  Ta
  Ta6      1.0000 0.50380  0.49620  0.10642  Biso   1.000  Ta
  Ta7      1.0000 0.99778  0.50380  0.60642  Biso   1.000  Ta
  Ta8      1.0000 0.00222  0.49620  0.10642  Biso   1.000  Ta
  Ta9      1.0000 0.49620  0.00222  0.89358  Biso   1.000  Ta
  Ta10     1.0000 0.50380  0.99778  0.39358  Biso   1.000  Ta
  Ta11     1.0000 0.99778  0.00222  0.89358  Biso   1.000  Ta
  Ta12     1.0000 0.00222  0.99778  0.39358  Biso   1.000  Ta
  Ta13     1.0000 0.49620  0.50380  0.89358  Biso   1.000  Ta
  Ta14     1.0000 0.50380  0.49620  0.39358  Biso   1.000  Ta
  Ta15     1.0000 0.99778  0.50380  0.89358  Biso   1.000  Ta
  Ta16     1.0000 0.00222  0.49620  0.39358  Biso   1.000  Ta
  O1       1.0000 0.74805  0.00352  0.75000  Biso   1.000  O
  O2       1.0000 0.75195  0.99648  0.25000  Biso   1.000  O
  O3       1.0000 0.24805  0.00352  0.75000  Biso   1.000  O
  O4       1.0000 0.25195  0.99648  0.25000  Biso   1.000  O
  O5       1.0000 0.74805  0.50374  0.75000  Biso   1.000  O
  O6       1.0000 0.75195  0.49626  0.25000  Biso   1.000  O
  O7       1.0000 0.24805  0.50374  0.75000  Biso   1.000  O
  O8       1.0000 0.25195  0.49626  0.25000  Biso   1.000  O
  O9       1.0000 0.49626  0.75195  0.75000  Biso   1.000  O
  O10      1.0000 0.50374  0.74805  0.25000  Biso   1.000  O
  O11      1.0000 0.99648  0.75195  0.75000  Biso   1.000  O
  O12      1.0000 0.00352  0.74805  0.25000  Biso   1.000  O
  O13      1.0000 0.49626  0.25195  0.75000  Biso   1.000  O
  O14      1.0000 0.50374  0.24805  0.25000  Biso   1.000  O
  O15      1.0000 0.99648  0.25195  0.75000  Biso   1.000  O
  O16      1.0000 0.00352  0.24805  0.25000  Biso   1.000  O
  O17      1.0000 0.49864  0.00316  0.68488  Biso   1.000  O
  O18      1.0000 0.50136  0.99684  0.18488  Biso   1.000  O
  O19      1.0000 0.99684  0.00316  0.68488  Biso   1.000  O
  O20      1.0000 0.00316  0.99684  0.18488  Biso   1.000  O
  O21      1.0000 0.49864  0.50136  0.68488  Biso   1.000  O
  O22      1.0000 0.50136  0.49864  0.18488  Biso   1.000  O
  O23      1.0000 0.99684  0.50136  0.68488  Biso   1.000  O
  O24      1.0000 0.00316  0.49864  0.18488  Biso   1.000  O
  O25      1.0000 0.49864  0.00316  0.81512  Biso   1.000  O
  O26      1.0000 0.50136  0.99684  0.31512  Biso   1.000  O
  O27      1.0000 0.99684  0.00316  0.81512  Biso   1.000  O
  O28      1.0000 0.00316  0.99684  0.31512  Biso   1.000  O
  O29      1.0000 0.49864  0.50136  0.81512  Biso   1.000  O
  O30      1.0000 0.50136  0.49864  0.31512  Biso   1.000  O
  O31      1.0000 0.99684  0.50136  0.81512  Biso   1.000  O
  O32      1.0000 0.00316  0.49864  0.31512  Biso   1.000  O
  O33      1.0000 0.74879  0.00120  0.61694  Biso   1.000  O
  O34      1.0000 0.75121  0.99880  0.12070  Biso   1.000  O
  O35      1.0000 0.24879  0.00120  0.62070  Biso   1.000  O
  O36      1.0000 0.25121  0.99880  0.11694  Biso   1.000  O
  O37      1.0000 0.74879  0.50161  0.61694  Biso   1.000  O
  O38      1.0000 0.75121  0.49839  0.12070  Biso   1.000  O
  O39      1.0000 0.24879  0.50161  0.62070  Biso   1.000  O
  O40      1.0000 0.25121  0.49839  0.11694  Biso   1.000  O
  O41      1.0000 0.24879  0.00120  0.87930  Biso   1.000  O
  O42      1.0000 0.25121  0.99880  0.38306  Biso   1.000  O
  O43      1.0000 0.74879  0.00120  0.88306  Biso   1.000  O
  O44      1.0000 0.75121  0.99880  0.37930  Biso   1.000  O
  O45      1.0000 0.24879  0.50161  0.87930  Biso   1.000  O
  O46      1.0000 0.25121  0.49839  0.38306  Biso   1.000  O
  O47      1.0000 0.74879  0.50161  0.88306  Biso   1.000  O
  O48      1.0000 0.75121  0.49839  0.37930  Biso   1.000  O
  O49      1.0000 0.49839  0.75121  0.87930  Biso   1.000  O
  O50      1.0000 0.50161  0.74879  0.38306  Biso   1.000  O
  O51      1.0000 0.99880  0.75121  0.87930  Biso   1.000  O
  O52      1.0000 0.00120  0.74879  0.38306  Biso   1.000  O
  O53      1.0000 0.49839  0.25121  0.88306  Biso   1.000  O
  O54      1.0000 0.50161  0.24879  0.37930  Biso   1.000  O
  O55      1.0000 0.99880  0.25121  0.88306  Biso   1.000  O
  O56      1.0000 0.00120  0.24879  0.37930  Biso   1.000  O
  O57      1.0000 0.49839  0.75121  0.62070  Biso   1.000  O
  O58      1.0000 0.50161  0.74879  0.11694  Biso   1.000  O
  O59      1.0000 0.99880  0.75121  0.62070  Biso   1.000  O
  O60      1.0000 0.00120  0.74879  0.11694  Biso   1.000  O
  O61      1.0000 0.49839  0.25121  0.61694  Biso   1.000  O
  O62      1.0000 0.50161  0.24879  0.12070  Biso   1.000  O
  O63      1.0000 0.99880  0.25121  0.61694  Biso   1.000  O
  O64      1.0000 0.00120  0.24879  0.12070  Biso   1.000  O
  O65      1.0000 0.49534  0.99782  0.54813  Biso   1.000  O
  O66      1.0000 0.50466  0.00218  0.04813  Biso   1.000  O
  O67      1.0000 0.00218  0.99782  0.54813  Biso   1.000  O
  O68      1.0000 0.99782  0.00218  0.04813  Biso   1.000  O
  O69      1.0000 0.49534  0.50466  0.54813  Biso   1.000  O
  O70      1.0000 0.50466  0.49534  0.04813  Biso   1.000  O
  O71      1.0000 0.00218  0.50466  0.54813  Biso   1.000  O
  O72      1.0000 0.99782  0.49534  0.04813  Biso   1.000  O
  O73      1.0000 0.49534  0.99782  0.95187  Biso   1.000  O
  O74      1.0000 0.50466  0.00218  0.45187  Biso   1.000  O
  O75      1.0000 0.00218  0.99782  0.95187  Biso   1.000  O
  O76      1.0000 0.99782  0.00218  0.45187  Biso   1.000  O
  O77      1.0000 0.49534  0.50466  0.95187  Biso   1.000  O
  O78      1.0000 0.50466  0.49534  0.45187  Biso   1.000  O
  O79      1.0000 0.00218  0.50466  0.95187  Biso   1.000  O
  O80      1.0000 0.99782  0.49534  0.45187  Biso   1.000  O
