data_image0
_cell_length_a       3.9264
_cell_length_b       30.3622
_cell_length_c       7.8528
_cell_angle_alpha    90
_cell_angle_beta     90
_cell_angle_gamma    90

_symmetry_space_group_name_H-M    "P 1"
_symmetry_int_tables_number       1

loop_
  _symmetry_equiv_pos_as_xyz
  'x, y, z'

loop_
  _atom_site_label
  _atom_site_occupancy
  _atom_site_fract_x
  _atom_site_fract_y
  _atom_site_fract_z
  _atom_site_thermal_displace_type
  _atom_site_B_iso_or_equiv
  _atom_site_type_symbol
  K1       1.0000 0.50000  0.49114  0.25000  Biso   1.000  K
  K2       1.0000 0.50000  0.00886  0.25000  Biso   1.000  K
  K3       1.0000 0.50000  0.50886  0.75000  Biso   1.000  K
  K4       1.0000 0.50000  0.99114  0.75000  Biso   1.000  K
  Pb1      1.0000 0.50145  0.67612  0.25072  Biso   1.000  Pb
  Pb2      1.0000 0.49855  0.17714  0.24928  Biso   1.000  Pb
  Pb3      1.0000 0.50145  0.67714  0.75072  Biso   1.000  Pb
  Pb4      1.0000 0.49855  0.17612  0.74928  Biso   1.000  Pb
  Pb5      1.0000 0.50145  0.82286  0.75072  Biso   1.000  Pb
  Pb6      1.0000 0.49855  0.32388  0.74928  Biso   1.000  Pb
  Pb7      1.0000 0.50145  0.82388  0.25072  Biso   1.000  Pb
  Pb8      1.0000 0.49855  0.32286  0.24928  Biso   1.000  Pb
  Nb1      1.0000 0.00000  0.75000  0.00027  Biso   1.000  Nb
  Nb2      1.0000 0.00000  0.25000  0.99973  Biso   1.000  Nb
  Nb3      1.0000 0.00000  0.75000  0.49973  Biso   1.000  Nb
  Nb4      1.0000 0.00000  0.25000  0.50027  Biso   1.000  Nb
  Ta1      1.0000 0.00602  0.60642  0.00222  Biso   1.000  Ta
  Ta2      1.0000 0.99398  0.10642  0.99778  Biso   1.000  Ta
  Ta3      1.0000 0.00602  0.60642  0.50380  Biso   1.000  Ta
  Ta4      1.0000 0.99398  0.10642  0.49620  Biso   1.000  Ta
  Ta5      1.0000 0.00602  0.89358  0.00222  Biso   1.000  Ta
  Ta6      1.0000 0.99398  0.39358  0.99778  Biso   1.000  Ta
  Ta7      1.0000 0.00602  0.89358  0.50380  Biso   1.000  Ta
  Ta8      1.0000 0.99398  0.39358  0.49620  Biso   1.000  Ta
  O1       1.0000 0.00725  0.75000  0.25195  Biso   1.000  O
  O2       1.0000 0.99275  0.25000  0.24805  Biso   1.000  O
  O3       1.0000 0.00725  0.75000  0.75195  Biso   1.000  O
  O4       1.0000 0.99275  0.25000  0.74805  Biso   1.000  O
  O5       1.0000 0.50390  0.75000  0.00352  Biso   1.000  O
  O6       1.0000 0.49610  0.25000  0.99648  Biso   1.000  O
  O7       1.0000 0.50390  0.75000  0.50374  Biso   1.000  O
  O8       1.0000 0.49610  0.25000  0.49626  Biso   1.000  O
  O9       1.0000 0.00451  0.68488  0.00316  Biso   1.000  O
  O10      1.0000 0.99549  0.18488  0.99684  Biso   1.000  O
  O11      1.0000 0.00451  0.68488  0.50136  Biso   1.000  O
  O12      1.0000 0.99549  0.18488  0.49864  Biso   1.000  O
  O13      1.0000 0.00451  0.81512  0.00316  Biso   1.000  O
  O14      1.0000 0.99549  0.31512  0.99684  Biso   1.000  O
  O15      1.0000 0.00451  0.81512  0.50136  Biso   1.000  O
  O16      1.0000 0.99549  0.31512  0.49864  Biso   1.000  O
  O17      1.0000 0.00281  0.61694  0.25121  Biso   1.000  O
  O18      1.0000 0.99719  0.12070  0.24879  Biso   1.000  O
  O19      1.0000 0.00281  0.62070  0.75121  Biso   1.000  O
  O20      1.0000 0.99719  0.11694  0.74879  Biso   1.000  O
  O21      1.0000 0.00281  0.87930  0.75121  Biso   1.000  O
  O22      1.0000 0.99719  0.38306  0.74879  Biso   1.000  O
  O23      1.0000 0.00281  0.88306  0.25121  Biso   1.000  O
  O24      1.0000 0.99719  0.37930  0.24879  Biso   1.000  O
  O25      1.0000 0.50242  0.88118  0.00120  Biso   1.000  O
  O26      1.0000 0.49758  0.38118  0.99880  Biso   1.000  O
  O27      1.0000 0.50242  0.88118  0.50161  Biso   1.000  O
  O28      1.0000 0.49758  0.38118  0.49839  Biso   1.000  O
  O29      1.0000 0.50242  0.61882  0.00120  Biso   1.000  O
  O30      1.0000 0.49758  0.11882  0.99880  Biso   1.000  O
  O31      1.0000 0.50242  0.61882  0.50161  Biso   1.000  O
  O32      1.0000 0.49758  0.11882  0.49839  Biso   1.000  O
  O33      1.0000 0.00247  0.54813  0.99782  Biso   1.000  O
  O34      1.0000 0.99753  0.04813  0.00218  Biso   1.000  O
  O35      1.0000 0.00247  0.54813  0.50466  Biso   1.000  O
  O36      1.0000 0.99753  0.04813  0.49534  Biso   1.000  O
  O37      1.0000 0.00247  0.95187  0.99782  Biso   1.000  O
  O38      1.0000 0.99753  0.45187  0.00218  Biso   1.000  O
  O39      1.0000 0.00247  0.95187  0.50466  Biso   1.000  O
  O40      1.0000 0.99753  0.45187  0.49534  Biso   1.000  O
