data_image0
_cell_length_a       7.8528
_cell_length_b       7.8528
_cell_length_c       16.1647
_cell_angle_alpha    104.058
_cell_angle_beta     104.058
_cell_angle_gamma    90

_symmetry_space_group_name_H-M    "P 1"
_symmetry_int_tables_number       1

loop_
  _symmetry_equiv_pos_as_xyz
  'x, y, z'

loop_
  _atom_site_label
  _atom_site_occupancy
  _atom_site_fract_x
  _atom_site_fract_y
  _atom_site_fract_z
  _atom_site_thermal_displace_type
  _atom_site_B_iso_or_equiv
  _atom_site_type_symbol
  K1       1.0000 0.26772  0.26772  0.53543  Biso   1.000  K
  K2       1.0000 0.73228  0.73228  0.46457  Biso   1.000  K
  K3       1.0000 0.75000  0.25000  0.50000  Biso   1.000  K
  K4       1.0000 0.25000  0.75000  0.50000  Biso   1.000  K
  Pb1      1.0000 0.07205  0.07205  0.14880  Biso   1.000  Pb
  Pb2      1.0000 0.57000  0.57000  0.14468  Biso   1.000  Pb
  Pb3      1.0000 0.57572  0.07572  0.14674  Biso   1.000  Pb
  Pb4      1.0000 0.07572  0.57572  0.14674  Biso   1.000  Pb
  Pb5      1.0000 0.42428  0.92428  0.85326  Biso   1.000  Pb
  Pb6      1.0000 0.92428  0.42428  0.85326  Biso   1.000  Pb
  Pb7      1.0000 0.92795  0.92795  0.85120  Biso   1.000  Pb
  Pb8      1.0000 0.43000  0.43000  0.85532  Biso   1.000  Pb
  Nb1      1.0000 0.75027  0.24973  0.00000  Biso   1.000  Nb
  Nb2      1.0000 0.24973  0.75027  0.00000  Biso   1.000  Nb
  Nb3      1.0000 0.24973  0.24973  0.00000  Biso   1.000  Nb
  Nb4      1.0000 0.75027  0.75027  0.00000  Biso   1.000  Nb
  Ta1      1.0000 0.89332  0.39490  0.28716  Biso   1.000  Ta
  Ta2      1.0000 0.39490  0.89332  0.28716  Biso   1.000  Ta
  Ta3      1.0000 0.39384  0.39384  0.28716  Biso   1.000  Ta
  Ta4      1.0000 0.89226  0.89226  0.28716  Biso   1.000  Ta
  Ta5      1.0000 0.60510  0.10668  0.71284  Biso   1.000  Ta
  Ta6      1.0000 0.10668  0.60510  0.71284  Biso   1.000  Ta
  Ta7      1.0000 0.10774  0.10774  0.71284  Biso   1.000  Ta
  Ta8      1.0000 0.60616  0.60616  0.71284  Biso   1.000  Ta
  O1       1.0000 0.00330  0.25341  0.00661  Biso   1.000  O
  O2       1.0000 0.50330  0.75319  0.00661  Biso   1.000  O
  O3       1.0000 0.49670  0.24681  0.99339  Biso   1.000  O
  O4       1.0000 0.99670  0.74659  0.99339  Biso   1.000  O
  O5       1.0000 0.75319  0.50330  0.00661  Biso   1.000  O
  O6       1.0000 0.25341  0.00330  0.00661  Biso   1.000  O
  O7       1.0000 0.24681  0.49670  0.99339  Biso   1.000  O
  O8       1.0000 0.74659  0.99670  0.99339  Biso   1.000  O
  O9       1.0000 0.81286  0.31106  0.13024  Biso   1.000  O
  O10      1.0000 0.31106  0.81286  0.13024  Biso   1.000  O
  O11      1.0000 0.31738  0.31738  0.13024  Biso   1.000  O
  O12      1.0000 0.81918  0.81918  0.13024  Biso   1.000  O
  O13      1.0000 0.68894  0.18714  0.86976  Biso   1.000  O
  O14      1.0000 0.18714  0.68894  0.86976  Biso   1.000  O
  O15      1.0000 0.18082  0.18082  0.86976  Biso   1.000  O
  O16      1.0000 0.68262  0.68262  0.86976  Biso   1.000  O
  O17      1.0000 0.13120  0.38141  0.26240  Biso   1.000  O
  O18      1.0000 0.62745  0.87725  0.25490  Biso   1.000  O
  O19      1.0000 0.63116  0.38136  0.26232  Biso   1.000  O
  O20      1.0000 0.13491  0.88470  0.26982  Biso   1.000  O
  O21      1.0000 0.37255  0.12275  0.74510  Biso   1.000  O
  O22      1.0000 0.86880  0.61859  0.73760  Biso   1.000  O
  O23      1.0000 0.86509  0.11530  0.73018  Biso   1.000  O
  O24      1.0000 0.36884  0.61864  0.73768  Biso   1.000  O
  O25      1.0000 0.61864  0.36884  0.73768  Biso   1.000  O
  O26      1.0000 0.11530  0.86509  0.73018  Biso   1.000  O
  O27      1.0000 0.12275  0.37255  0.74510  Biso   1.000  O
  O28      1.0000 0.61859  0.86880  0.73760  Biso   1.000  O
  O29      1.0000 0.87725  0.62745  0.25490  Biso   1.000  O
  O30      1.0000 0.38141  0.13120  0.26240  Biso   1.000  O
  O31      1.0000 0.38136  0.63116  0.26232  Biso   1.000  O
  O32      1.0000 0.88470  0.13491  0.26982  Biso   1.000  O
  O33      1.0000 0.95032  0.45716  0.40374  Biso   1.000  O
  O34      1.0000 0.45716  0.95032  0.40374  Biso   1.000  O
  O35      1.0000 0.45342  0.45342  0.40374  Biso   1.000  O
  O36      1.0000 0.94658  0.94658  0.40374  Biso   1.000  O
  O37      1.0000 0.54284  0.04968  0.59626  Biso   1.000  O
  O38      1.0000 0.04968  0.54284  0.59626  Biso   1.000  O
  O39      1.0000 0.05342  0.05342  0.59626  Biso   1.000  O
  O40      1.0000 0.54658  0.54658  0.59626  Biso   1.000  O
