data_image0
_cell_length_a       16.1647
_cell_length_b       16.1647
_cell_length_c       16.1647
_cell_angle_alpha    151.885
_cell_angle_beta     40.1819
_cell_angle_gamma    151.885

_symmetry_space_group_name_H-M    "P 1"
_symmetry_int_tables_number       1

loop_
  _symmetry_equiv_pos_as_xyz
  'x, y, z'

loop_
  _atom_site_label
  _atom_site_occupancy
  _atom_site_fract_x
  _atom_site_fract_y
  _atom_site_fract_z
  _atom_site_thermal_displace_type
  _atom_site_B_iso_or_equiv
  _atom_site_type_symbol
  K1       1.0000 0.26772  0.50000  0.76772  Biso   1.000  K
  K2       1.0000 0.73228  0.50000  0.23228  Biso   1.000  K
  K3       1.0000 0.25000  0.00000  0.25000  Biso   1.000  K
  K4       1.0000 0.75000  0.00000  0.75000  Biso   1.000  K
  Pb1      1.0000 0.07699  0.50259  0.57440  Biso   1.000  Pb
  Pb2      1.0000 0.57493  0.50259  0.07234  Biso   1.000  Pb
  Pb3      1.0000 0.07596  0.00259  0.07337  Biso   1.000  Pb
  Pb4      1.0000 0.57596  0.00259  0.57337  Biso   1.000  Pb
  Pb5      1.0000 0.92922  0.00259  0.92663  Biso   1.000  Pb
  Pb6      1.0000 0.42922  0.00259  0.42663  Biso   1.000  Pb
  Pb7      1.0000 0.92819  0.50259  0.42560  Biso   1.000  Pb
  Pb8      1.0000 0.43025  0.50259  0.92766  Biso   1.000  Pb
  Nb1      1.0000 0.25225  0.00198  0.74973  Biso   1.000  Nb
  Nb2      1.0000 0.75279  0.00306  0.25027  Biso   1.000  Nb
  Nb3      1.0000 0.25225  0.50252  0.25027  Biso   1.000  Nb
  Nb4      1.0000 0.75279  0.50252  0.74973  Biso   1.000  Nb
  Ta1      1.0000 0.39254  0.99975  0.89437  Biso   1.000  Ta
  Ta2      1.0000 0.89096  0.99659  0.39279  Biso   1.000  Ta
  Ta3      1.0000 0.39254  0.49817  0.39279  Biso   1.000  Ta
  Ta4      1.0000 0.89096  0.49817  0.89437  Biso   1.000  Ta
  Ta5      1.0000 0.10538  0.99975  0.60721  Biso   1.000  Ta
  Ta6      1.0000 0.60380  0.99659  0.10563  Biso   1.000  Ta
  Ta7      1.0000 0.10538  0.49817  0.10563  Biso   1.000  Ta
  Ta8      1.0000 0.60380  0.49817  0.60721  Biso   1.000  Ta
  O1       1.0000 0.24383  0.74383  0.50000  Biso   1.000  O
  O2       1.0000 0.74361  0.74361  0.00000  Biso   1.000  O
  O3       1.0000 0.24383  0.24383  0.00000  Biso   1.000  O
  O4       1.0000 0.74361  0.24361  0.50000  Biso   1.000  O
  O5       1.0000 0.49703  0.24714  0.75011  Biso   1.000  O
  O6       1.0000 0.99703  0.24692  0.24989  Biso   1.000  O
  O7       1.0000 0.49703  0.74692  0.24989  Biso   1.000  O
  O8       1.0000 0.99703  0.74714  0.75011  Biso   1.000  O
  O9       1.0000 0.31076  0.99474  0.81422  Biso   1.000  O
  O10      1.0000 0.81256  0.99834  0.31602  Biso   1.000  O
  O11      1.0000 0.31076  0.49654  0.31602  Biso   1.000  O
  O12      1.0000 0.81256  0.49654  0.81422  Biso   1.000  O
  O13      1.0000 0.18052  0.99474  0.68398  Biso   1.000  O
  O14      1.0000 0.68232  0.99834  0.18578  Biso   1.000  O
  O15      1.0000 0.18052  0.49654  0.18578  Biso   1.000  O
  O16      1.0000 0.68232  0.49654  0.68398  Biso   1.000  O
  O17      1.0000 0.38138  0.74832  0.63306  Biso   1.000  O
  O18      1.0000 0.87722  0.74791  0.12930  Biso   1.000  O
  O19      1.0000 0.37763  0.24832  0.12930  Biso   1.000  O
  O20      1.0000 0.88097  0.24791  0.63306  Biso   1.000  O
  O21      1.0000 0.11902  0.24832  0.87070  Biso   1.000  O
  O22      1.0000 0.61486  0.24791  0.36694  Biso   1.000  O
  O23      1.0000 0.11527  0.74832  0.36694  Biso   1.000  O
  O24      1.0000 0.61861  0.74791  0.87070  Biso   1.000  O
  O25      1.0000 0.36924  0.24875  0.62090  Biso   1.000  O
  O26      1.0000 0.86549  0.24834  0.11674  Biso   1.000  O
  O27      1.0000 0.36924  0.74834  0.12049  Biso   1.000  O
  O28      1.0000 0.86549  0.74875  0.61715  Biso   1.000  O
  O29      1.0000 0.62785  0.24875  0.87951  Biso   1.000  O
  O30      1.0000 0.13160  0.24834  0.38285  Biso   1.000  O
  O31      1.0000 0.62785  0.74834  0.37910  Biso   1.000  O
  O32      1.0000 0.13160  0.74875  0.88326  Biso   1.000  O
  O33      1.0000 0.45418  0.00573  0.95529  Biso   1.000  O
  O34      1.0000 0.94734  0.99205  0.44845  Biso   1.000  O
  O35      1.0000 0.45418  0.49889  0.44845  Biso   1.000  O
  O36      1.0000 0.94734  0.49889  0.95529  Biso   1.000  O
  O37      1.0000 0.05044  0.00573  0.55155  Biso   1.000  O
  O38      1.0000 0.54360  0.99205  0.04471  Biso   1.000  O
  O39      1.0000 0.05044  0.49889  0.04471  Biso   1.000  O
  O40      1.0000 0.54360  0.49889  0.55155  Biso   1.000  O
