data_image0
_cell_length_a       3.9264
_cell_length_b       15.6806
_cell_length_c       15.6806
_cell_angle_alpha    150.998
_cell_angle_beta     90
_cell_angle_gamma    90

_symmetry_space_group_name_H-M    "P 1"
_symmetry_int_tables_number       1

loop_
  _symmetry_equiv_pos_as_xyz
  'x, y, z'

loop_
  _atom_site_label
  _atom_site_occupancy
  _atom_site_fract_x
  _atom_site_fract_y
  _atom_site_fract_z
  _atom_site_thermal_displace_type
  _atom_site_B_iso_or_equiv
  _atom_site_type_symbol
  K1       1.0000 0.50000  0.50886  0.99114  Biso   1.000  K
  K2       1.0000 0.50000  0.99114  0.50886  Biso   1.000  K
  Pb1      1.0000 0.50000  0.32129  0.17352  Biso   1.000  Pb
  Pb2      1.0000 0.50000  0.82026  0.67455  Biso   1.000  Pb
  Pb3      1.0000 0.50000  0.67455  0.82026  Biso   1.000  Pb
  Pb4      1.0000 0.50000  0.17352  0.32129  Biso   1.000  Pb
  Nb1      1.0000 0.00000  0.99775  0.99775  Biso   1.000  Nb
  Nb2      1.0000 0.00000  0.49721  0.49721  Biso   1.000  Nb
  Ta1      1.0000 0.00000  0.14462  0.85746  Biso   1.000  Ta
  Ta2      1.0000 0.00000  0.64620  0.35904  Biso   1.000  Ta
  Ta3      1.0000 0.00000  0.85746  0.14462  Biso   1.000  Ta
  Ta4      1.0000 0.00000  0.35904  0.64620  Biso   1.000  Ta
  O1       1.0000 0.00000  0.25297  0.25297  Biso   1.000  O
  O2       1.0000 0.00000  0.75297  0.75297  Biso   1.000  O
  O3       1.0000 0.50000  0.00617  0.00617  Biso   1.000  O
  O4       1.0000 0.50000  0.50639  0.50639  Biso   1.000  O
  O5       1.0000 0.00000  0.06948  0.93924  Biso   1.000  O
  O6       1.0000 0.00000  0.56768  0.43744  Biso   1.000  O
  O7       1.0000 0.00000  0.93924  0.06948  Biso   1.000  O
  O8       1.0000 0.00000  0.43744  0.56768  Biso   1.000  O
  O9       1.0000 0.00000  0.38451  0.11840  Biso   1.000  O
  O10      1.0000 0.00000  0.88076  0.62215  Biso   1.000  O
  O11      1.0000 0.00000  0.62215  0.88076  Biso   1.000  O
  O12      1.0000 0.00000  0.11840  0.38451  Biso   1.000  O
  O13      1.0000 0.50000  0.87050  0.13286  Biso   1.000  O
  O14      1.0000 0.50000  0.37091  0.63327  Biso   1.000  O
  O15      1.0000 0.50000  0.13286  0.87050  Biso   1.000  O
  O16      1.0000 0.50000  0.63327  0.37091  Biso   1.000  O
  O17      1.0000 0.00000  0.19956  0.79582  Biso   1.000  O
  O18      1.0000 0.00000  0.70640  0.30266  Biso   1.000  O
  O19      1.0000 0.00000  0.79582  0.19956  Biso   1.000  O
  O20      1.0000 0.00000  0.30266  0.70640  Biso   1.000  O
