data_image0
_cell_length_a       16.1647
_cell_length_b       7.8528
_cell_length_c       16.1647
_cell_angle_alpha    75.9423
_cell_angle_beta     28.1154
_cell_angle_gamma    75.9423

_symmetry_space_group_name_H-M    "P 1"
_symmetry_int_tables_number       1

loop_
  _symmetry_equiv_pos_as_xyz
  'x, y, z'

loop_
  _atom_site_label
  _atom_site_occupancy
  _atom_site_fract_x
  _atom_site_fract_y
  _atom_site_fract_z
  _atom_site_thermal_displace_type
  _atom_site_B_iso_or_equiv
  _atom_site_type_symbol
  K1       1.0000 0.52336  0.98793  0.01207  Biso   1.000  K
  K2       1.0000 0.98793  0.52336  0.47664  Biso   1.000  K
  K3       1.0000 0.99435  0.99435  0.50565  Biso   1.000  K
  K4       1.0000 0.49435  0.49435  0.00565  Biso   1.000  K
  Pb1      1.0000 0.32253  0.17374  0.82626  Biso   1.000  Pb
  Pb2      1.0000 0.82048  0.67579  0.32421  Biso   1.000  Pb
  Pb3      1.0000 0.82523  0.17849  0.32151  Biso   1.000  Pb
  Pb4      1.0000 0.32523  0.67849  0.82151  Biso   1.000  Pb
  Pb5      1.0000 0.67849  0.32523  0.17477  Biso   1.000  Pb
  Pb6      1.0000 0.17849  0.82523  0.67477  Biso   1.000  Pb
  Pb7      1.0000 0.17374  0.32253  0.67747  Biso   1.000  Pb
  Pb8      1.0000 0.67579  0.82048  0.17952  Biso   1.000  Pb
  Nb1      1.0000 0.00022  0.49968  0.99978  Biso   1.000  Nb
  Nb2      1.0000 0.49968  0.00022  0.50032  Biso   1.000  Nb
  Nb3      1.0000 0.49978  0.49978  0.50022  Biso   1.000  Nb
  Nb4      1.0000 0.00032  0.00032  0.99968  Biso   1.000  Nb
  Ta1      1.0000 0.14366  0.35808  0.14350  Biso   1.000  Ta
  Ta2      1.0000 0.64524  0.85650  0.64192  Biso   1.000  Ta
  Ta3      1.0000 0.64350  0.35634  0.64366  Biso   1.000  Ta
  Ta4      1.0000 0.14192  0.85476  0.14524  Biso   1.000  Ta
  Ta5      1.0000 0.85650  0.64524  0.85634  Biso   1.000  Ta
  Ta6      1.0000 0.35808  0.14366  0.35476  Biso   1.000  Ta
  Ta7      1.0000 0.35634  0.64350  0.35650  Biso   1.000  Ta
  Ta8      1.0000 0.85476  0.14192  0.85808  Biso   1.000  Ta
  O1       1.0000 0.25000  0.50011  0.75000  Biso   1.000  O
  O2       1.0000 0.75000  0.99989  0.25000  Biso   1.000  O
  O3       1.0000 0.75000  0.50011  0.25000  Biso   1.000  O
  O4       1.0000 0.25000  0.99989  0.75000  Biso   1.000  O
  O5       1.0000 0.99989  0.75000  0.00011  Biso   1.000  O
  O6       1.0000 0.50011  0.25000  0.49989  Biso   1.000  O
  O7       1.0000 0.50011  0.75000  0.49989  Biso   1.000  O
  O8       1.0000 0.99989  0.25000  0.00011  Biso   1.000  O
  O9       1.0000 0.06515  0.43311  0.06509  Biso   1.000  O
  O10      1.0000 0.56335  0.93491  0.56689  Biso   1.000  O
  O11      1.0000 0.56509  0.43485  0.56515  Biso   1.000  O
  O12      1.0000 0.06689  0.93665  0.06335  Biso   1.000  O
  O13      1.0000 0.93491  0.56335  0.93485  Biso   1.000  O
  O14      1.0000 0.43311  0.06515  0.43665  Biso   1.000  O
  O15      1.0000 0.43485  0.56509  0.43491  Biso   1.000  O
  O16      1.0000 0.93665  0.06689  0.93311  Biso   1.000  O
  O17      1.0000 0.38175  0.36845  0.88175  Biso   1.000  O
  O18      1.0000 0.87800  0.87179  0.37800  Biso   1.000  O
  O19      1.0000 0.88061  0.36960  0.38061  Biso   1.000  O
  O20      1.0000 0.38436  0.86544  0.88436  Biso   1.000  O
  O21      1.0000 0.61939  0.63081  0.11939  Biso   1.000  O
  O22      1.0000 0.11564  0.13415  0.61564  Biso   1.000  O
  O23      1.0000 0.11825  0.63196  0.61825  Biso   1.000  O
  O24      1.0000 0.62200  0.12780  0.12200  Biso   1.000  O
  O25      1.0000 0.87179  0.87800  0.87220  Biso   1.000  O
  O26      1.0000 0.36845  0.38175  0.36804  Biso   1.000  O
  O27      1.0000 0.36960  0.88061  0.36919  Biso   1.000  O
  O28      1.0000 0.86544  0.38436  0.86585  Biso   1.000  O
  O29      1.0000 0.12780  0.62200  0.12821  Biso   1.000  O
  O30      1.0000 0.63196  0.11825  0.63155  Biso   1.000  O
  O31      1.0000 0.63081  0.61939  0.63040  Biso   1.000  O
  O32      1.0000 0.13415  0.11564  0.13456  Biso   1.000  O
  O33      1.0000 0.20080  0.30389  0.20294  Biso   1.000  O
  O34      1.0000 0.70763  0.79706  0.69611  Biso   1.000  O
  O35      1.0000 0.70294  0.29920  0.70080  Biso   1.000  O
  O36      1.0000 0.19611  0.79237  0.20763  Biso   1.000  O
  O37      1.0000 0.79706  0.70763  0.79920  Biso   1.000  O
  O38      1.0000 0.30389  0.20080  0.29237  Biso   1.000  O
  O39      1.0000 0.29920  0.70294  0.29706  Biso   1.000  O
  O40      1.0000 0.79237  0.19611  0.80389  Biso   1.000  O
