data_image0
_cell_length_a       16.1647
_cell_length_b       16.1647
_cell_length_c       7.8528
_cell_angle_alpha    104.058
_cell_angle_beta     104.058
_cell_angle_gamma    139.818

_symmetry_space_group_name_H-M    "P 1"
_symmetry_int_tables_number       1

loop_
  _symmetry_equiv_pos_as_xyz
  'x, y, z'

loop_
  _atom_site_label
  _atom_site_occupancy
  _atom_site_fract_x
  _atom_site_fract_y
  _atom_site_fract_z
  _atom_site_thermal_displace_type
  _atom_site_B_iso_or_equiv
  _atom_site_type_symbol
  K1       1.0000 0.48550  0.00321  0.75000  Biso   1.000  K
  K2       1.0000 0.00321  0.48550  0.75000  Biso   1.000  K
  K3       1.0000 0.51450  0.99679  0.25000  Biso   1.000  K
  K4       1.0000 0.99679  0.51450  0.25000  Biso   1.000  K
  Pb1      1.0000 0.67798  0.82575  0.75000  Biso   1.000  Pb
  Pb2      1.0000 0.17901  0.32472  0.75000  Biso   1.000  Pb
  Pb3      1.0000 0.67528  0.82099  0.25000  Biso   1.000  Pb
  Pb4      1.0000 0.17425  0.32202  0.25000  Biso   1.000  Pb
  Pb5      1.0000 0.82099  0.67528  0.25000  Biso   1.000  Pb
  Pb6      1.0000 0.32202  0.17425  0.25000  Biso   1.000  Pb
  Pb7      1.0000 0.82575  0.67798  0.75000  Biso   1.000  Pb
  Pb8      1.0000 0.32472  0.17901  0.75000  Biso   1.000  Pb
  Nb1      1.0000 0.99995  0.99995  0.75027  Biso   1.000  Nb
  Nb2      1.0000 0.49995  0.49995  0.74973  Biso   1.000  Nb
  Nb3      1.0000 0.00005  0.00005  0.24973  Biso   1.000  Nb
  Nb4      1.0000 0.50005  0.50005  0.25027  Biso   1.000  Nb
  Ta1      1.0000 0.85729  0.14445  0.74921  Biso   1.000  Ta
  Ta2      1.0000 0.35729  0.64445  0.75079  Biso   1.000  Ta
  Ta3      1.0000 0.85555  0.14271  0.25079  Biso   1.000  Ta
  Ta4      1.0000 0.35555  0.64271  0.24921  Biso   1.000  Ta
  Ta5      1.0000 0.14445  0.85729  0.74921  Biso   1.000  Ta
  Ta6      1.0000 0.64445  0.35729  0.75079  Biso   1.000  Ta
  Ta7      1.0000 0.14271  0.85555  0.25079  Biso   1.000  Ta
  Ta8      1.0000 0.64271  0.35555  0.24921  Biso   1.000  Ta
  O1       1.0000 0.00000  0.00000  0.00000  Biso   1.000  O
  O2       1.0000 0.50000  0.50000  0.00000  Biso   1.000  O
  O3       1.0000 0.00000  0.00000  0.50000  Biso   1.000  O
  O4       1.0000 0.50000  0.50000  0.50000  Biso   1.000  O
  O5       1.0000 0.25000  0.25000  0.99989  Biso   1.000  O
  O6       1.0000 0.75000  0.75000  0.00011  Biso   1.000  O
  O7       1.0000 0.25000  0.25000  0.50011  Biso   1.000  O
  O8       1.0000 0.75000  0.75000  0.49989  Biso   1.000  O
  O9       1.0000 0.93401  0.06425  0.75090  Biso   1.000  O
  O10      1.0000 0.43401  0.56425  0.74910  Biso   1.000  O
  O11      1.0000 0.93575  0.06599  0.24910  Biso   1.000  O
  O12      1.0000 0.43575  0.56599  0.25090  Biso   1.000  O
  O13      1.0000 0.06425  0.93401  0.75090  Biso   1.000  O
  O14      1.0000 0.56425  0.43401  0.74910  Biso   1.000  O
  O15      1.0000 0.06599  0.93575  0.24910  Biso   1.000  O
  O16      1.0000 0.56599  0.43575  0.25090  Biso   1.000  O
  O17      1.0000 0.86564  0.13436  0.00000  Biso   1.000  O
  O18      1.0000 0.36939  0.63061  0.00000  Biso   1.000  O
  O19      1.0000 0.87200  0.12800  0.50000  Biso   1.000  O
  O20      1.0000 0.36825  0.63175  0.50000  Biso   1.000  O
  O21      1.0000 0.12800  0.87200  0.50000  Biso   1.000  O
  O22      1.0000 0.63175  0.36825  0.50000  Biso   1.000  O
  O23      1.0000 0.13436  0.86564  0.00000  Biso   1.000  O
  O24      1.0000 0.63061  0.36939  0.00000  Biso   1.000  O
  O25      1.0000 0.37988  0.12012  0.99980  Biso   1.000  O
  O26      1.0000 0.87988  0.62012  0.00020  Biso   1.000  O
  O27      1.0000 0.38248  0.11752  0.50020  Biso   1.000  O
  O28      1.0000 0.88248  0.61752  0.49980  Biso   1.000  O
  O29      1.0000 0.12012  0.37988  0.99980  Biso   1.000  O
  O30      1.0000 0.62012  0.87988  0.00020  Biso   1.000  O
  O31      1.0000 0.11752  0.38248  0.50020  Biso   1.000  O
  O32      1.0000 0.61752  0.88248  0.49980  Biso   1.000  O
  O33      1.0000 0.80048  0.20422  0.74658  Biso   1.000  O
  O34      1.0000 0.30048  0.70422  0.75342  Biso   1.000  O
  O35      1.0000 0.79578  0.19952  0.25342  Biso   1.000  O
  O36      1.0000 0.29578  0.69952  0.24658  Biso   1.000  O
  O37      1.0000 0.20422  0.80048  0.74658  Biso   1.000  O
  O38      1.0000 0.70422  0.30048  0.75342  Biso   1.000  O
  O39      1.0000 0.19952  0.79578  0.25342  Biso   1.000  O
  O40      1.0000 0.69952  0.29578  0.24658  Biso   1.000  O
