data_image0
_cell_length_a       16.1647
_cell_length_b       16.1647
_cell_length_c       16.1647
_cell_angle_alpha    151.885
_cell_angle_beta     151.885
_cell_angle_gamma    40.1819

_symmetry_space_group_name_H-M    "P 1"
_symmetry_int_tables_number       1

loop_
  _symmetry_equiv_pos_as_xyz
  'x, y, z'

loop_
  _atom_site_label
  _atom_site_occupancy
  _atom_site_fract_x
  _atom_site_fract_y
  _atom_site_fract_z
  _atom_site_thermal_displace_type
  _atom_site_B_iso_or_equiv
  _atom_site_type_symbol
  K1       1.0000 0.48228  0.48228  0.00000  Biso   1.000  K
  K2       1.0000 0.01772  0.01772  0.00000  Biso   1.000  K
  K3       1.0000 0.50000  0.00000  0.50000  Biso   1.000  K
  K4       1.0000 0.00000  0.50000  0.50000  Biso   1.000  K
  Pb1      1.0000 0.67647  0.67647  0.00000  Biso   1.000  Pb
  Pb2      1.0000 0.17679  0.17679  0.00000  Biso   1.000  Pb
  Pb3      1.0000 0.67576  0.17576  0.50000  Biso   1.000  Pb
  Pb4      1.0000 0.17750  0.67750  0.50000  Biso   1.000  Pb
  Pb5      1.0000 0.82250  0.32250  0.50000  Biso   1.000  Pb
  Pb6      1.0000 0.32424  0.82424  0.50000  Biso   1.000  Pb
  Pb7      1.0000 0.82527  0.82527  0.00000  Biso   1.000  Pb
  Pb8      1.0000 0.32147  0.32147  0.00000  Biso   1.000  Pb
  Nb1      1.0000 0.99973  0.99973  0.49946  Biso   1.000  Nb
  Nb2      1.0000 0.50027  0.50027  0.50054  Biso   1.000  Nb
  Nb3      1.0000 0.99973  0.50027  0.00000  Biso   1.000  Nb
  Nb4      1.0000 0.50027  0.99973  1.00000  Biso   1.000  Nb
  Ta1      1.0000 0.85721  0.85704  0.50141  Biso   1.000  Ta
  Ta2      1.0000 0.35563  0.35580  0.49859  Biso   1.000  Ta
  Ta3      1.0000 0.85721  0.35580  0.00017  Biso   1.000  Ta
  Ta4      1.0000 0.35563  0.85704  0.99983  Biso   1.000  Ta
  Ta5      1.0000 0.14437  0.14454  0.50175  Biso   1.000  Ta
  Ta6      1.0000 0.64279  0.64262  0.49825  Biso   1.000  Ta
  Ta7      1.0000 0.14437  0.64262  0.99983  Biso   1.000  Ta
  Ta8      1.0000 0.64279  0.14454  0.00017  Biso   1.000  Ta
  O1       1.0000 0.99365  0.74354  0.25011  Biso   1.000  O
  O2       1.0000 0.50635  0.25646  0.24989  Biso   1.000  O
  O3       1.0000 0.00657  0.25646  0.75011  Biso   1.000  O
  O4       1.0000 0.49343  0.74354  0.74989  Biso   1.000  O
  O5       1.0000 0.25000  0.00011  0.75011  Biso   1.000  O
  O6       1.0000 0.75000  0.49989  0.74989  Biso   1.000  O
  O7       1.0000 0.25000  0.49989  0.24989  Biso   1.000  O
  O8       1.0000 0.75000  0.00011  0.25011  Biso   1.000  O
  O9       1.0000 0.93398  0.93902  0.50324  Biso   1.000  O
  O10      1.0000 0.43578  0.43074  0.49676  Biso   1.000  O
  O11      1.0000 0.93398  0.43074  0.99496  Biso   1.000  O
  O12      1.0000 0.43578  0.93902  0.00504  Biso   1.000  O
  O13      1.0000 0.06422  0.05918  0.49316  Biso   1.000  O
  O14      1.0000 0.56602  0.57106  0.50684  Biso   1.000  O
  O15      1.0000 0.06422  0.57106  0.00504  Biso   1.000  O
  O16      1.0000 0.56602  0.05918  0.99496  Biso   1.000  O
  O17      1.0000 0.86993  0.61973  0.25020  Biso   1.000  O
  O18      1.0000 0.36771  0.11791  0.24980  Biso   1.000  O
  O19      1.0000 0.86812  0.11791  0.75020  Biso   1.000  O
  O20      1.0000 0.36952  0.61973  0.74980  Biso   1.000  O
  O21      1.0000 0.12673  0.37652  0.75020  Biso   1.000  O
  O22      1.0000 0.63563  0.88584  0.74980  Biso   1.000  O
  O23      1.0000 0.13604  0.88584  0.25020  Biso   1.000  O
  O24      1.0000 0.62632  0.37652  0.24980  Biso   1.000  O
  O25      1.0000 0.37930  0.13013  0.75082  Biso   1.000  O
  O26      1.0000 0.88306  0.63223  0.74918  Biso   1.000  O
  O27      1.0000 0.37930  0.62848  0.24918  Biso   1.000  O
  O28      1.0000 0.88306  0.13388  0.25082  Biso   1.000  O
  O29      1.0000 0.12070  0.87028  0.74959  Biso   1.000  O
  O30      1.0000 0.61694  0.36736  0.75041  Biso   1.000  O
  O31      1.0000 0.12070  0.37111  0.25041  Biso   1.000  O
  O32      1.0000 0.61694  0.86653  0.24959  Biso   1.000  O
  O33      1.0000 0.80155  0.80050  0.50579  Biso   1.000  O
  O34      1.0000 0.29471  0.29576  0.49421  Biso   1.000  O
  O35      1.0000 0.80155  0.29576  0.00105  Biso   1.000  O
  O36      1.0000 0.29471  0.80050  0.99895  Biso   1.000  O
  O37      1.0000 0.20529  0.20634  0.50789  Biso   1.000  O
  O38      1.0000 0.69845  0.69740  0.49211  Biso   1.000  O
  O39      1.0000 0.20529  0.69740  0.99895  Biso   1.000  O
  O40      1.0000 0.69845  0.20634  0.00105  Biso   1.000  O
