data_image0
_cell_length_a       7.8528
_cell_length_b       7.8528
_cell_length_c       15.1811
_cell_angle_alpha    90
_cell_angle_beta     90
_cell_angle_gamma    90

_symmetry_space_group_name_H-M    "P 1"
_symmetry_int_tables_number       1

loop_
  _symmetry_equiv_pos_as_xyz
  'x, y, z'

loop_
  _atom_site_label
  _atom_site_occupancy
  _atom_site_fract_x
  _atom_site_fract_y
  _atom_site_fract_z
  _atom_site_thermal_displace_type
  _atom_site_B_iso_or_equiv
  _atom_site_type_symbol
  K1       1.0000 0.73939  0.26061  0.50000  Biso   1.000  K
  K2       1.0000 0.23939  0.23939  0.50000  Biso   1.000  K
  K3       1.0000 0.76061  0.76061  0.50000  Biso   1.000  K
  K4       1.0000 0.26061  0.73939  0.50000  Biso   1.000  K
  Pb1      1.0000 0.75229  0.25240  0.14674  Biso   1.000  Pb
  Pb2      1.0000 0.24760  0.24760  0.14674  Biso   1.000  Pb
  Pb3      1.0000 0.74771  0.74771  0.14674  Biso   1.000  Pb
  Pb4      1.0000 0.25240  0.75229  0.14674  Biso   1.000  Pb
  Pb5      1.0000 0.25229  0.25229  0.85326  Biso   1.000  Pb
  Pb6      1.0000 0.74760  0.24771  0.85326  Biso   1.000  Pb
  Pb7      1.0000 0.24771  0.74760  0.85326  Biso   1.000  Pb
  Pb8      1.0000 0.75240  0.75240  0.85326  Biso   1.000  Pb
  Nb1      1.0000 0.00000  0.00000  0.00000  Biso   1.000  Nb
  Nb2      1.0000 0.50000  0.00000  0.00000  Biso   1.000  Nb
  Nb3      1.0000 0.00000  0.50000  0.00000  Biso   1.000  Nb
  Nb4      1.0000 0.50000  0.50000  0.00000  Biso   1.000  Nb
  Ta1      1.0000 0.99947  0.99947  0.28716  Biso   1.000  Ta
  Ta2      1.0000 0.50053  0.00053  0.28716  Biso   1.000  Ta
  Ta3      1.0000 0.00053  0.50053  0.28716  Biso   1.000  Ta
  Ta4      1.0000 0.49947  0.49947  0.28716  Biso   1.000  Ta
  Ta5      1.0000 0.00053  0.00053  0.71284  Biso   1.000  Ta
  Ta6      1.0000 0.49947  0.99947  0.71284  Biso   1.000  Ta
  Ta7      1.0000 0.99947  0.49947  0.71284  Biso   1.000  Ta
  Ta8      1.0000 0.50053  0.50053  0.71284  Biso   1.000  Ta
  O1       1.0000 0.75000  0.00000  0.00661  Biso   1.000  O
  O2       1.0000 0.25000  0.00000  0.99339  Biso   1.000  O
  O3       1.0000 0.75000  0.50000  0.99339  Biso   1.000  O
  O4       1.0000 0.25000  0.50000  0.00661  Biso   1.000  O
  O5       1.0000 0.00000  0.75000  0.00661  Biso   1.000  O
  O6       1.0000 0.50000  0.75000  0.99339  Biso   1.000  O
  O7       1.0000 0.00000  0.25000  0.99339  Biso   1.000  O
  O8       1.0000 0.50000  0.25000  0.00661  Biso   1.000  O
  O9       1.0000 0.00316  0.00316  0.13024  Biso   1.000  O
  O10      1.0000 0.49684  0.99684  0.13024  Biso   1.000  O
  O11      1.0000 0.99684  0.49684  0.13024  Biso   1.000  O
  O12      1.0000 0.50316  0.50316  0.13024  Biso   1.000  O
  O13      1.0000 0.99684  0.99684  0.86976  Biso   1.000  O
  O14      1.0000 0.50316  0.00316  0.86976  Biso   1.000  O
  O15      1.0000 0.00316  0.50316  0.86976  Biso   1.000  O
  O16      1.0000 0.49684  0.49684  0.86976  Biso   1.000  O
  O17      1.0000 0.75000  0.99994  0.25865  Biso   1.000  O
  O18      1.0000 0.25000  0.00006  0.26607  Biso   1.000  O
  O19      1.0000 0.75000  0.49994  0.26607  Biso   1.000  O
  O20      1.0000 0.25000  0.50006  0.25865  Biso   1.000  O
  O21      1.0000 0.25000  0.00006  0.74135  Biso   1.000  O
  O22      1.0000 0.75000  0.99994  0.73393  Biso   1.000  O
  O23      1.0000 0.25000  0.50006  0.73393  Biso   1.000  O
  O24      1.0000 0.75000  0.49994  0.74135  Biso   1.000  O
  O25      1.0000 0.99994  0.75000  0.73393  Biso   1.000  O
  O26      1.0000 0.49994  0.75000  0.74135  Biso   1.000  O
  O27      1.0000 0.00006  0.25000  0.74135  Biso   1.000  O
  O28      1.0000 0.50006  0.25000  0.73393  Biso   1.000  O
  O29      1.0000 0.99994  0.75000  0.25865  Biso   1.000  O
  O30      1.0000 0.49994  0.75000  0.26607  Biso   1.000  O
  O31      1.0000 0.00006  0.25000  0.26607  Biso   1.000  O
  O32      1.0000 0.50006  0.25000  0.25865  Biso   1.000  O
  O33      1.0000 0.99813  0.99813  0.40374  Biso   1.000  O
  O34      1.0000 0.50187  0.00187  0.40374  Biso   1.000  O
  O35      1.0000 0.00187  0.50187  0.40374  Biso   1.000  O
  O36      1.0000 0.49813  0.49813  0.40374  Biso   1.000  O
  O37      1.0000 0.00187  0.00187  0.59626  Biso   1.000  O
  O38      1.0000 0.49813  0.99813  0.59626  Biso   1.000  O
  O39      1.0000 0.99813  0.49813  0.59626  Biso   1.000  O
  O40      1.0000 0.50187  0.50187  0.59626  Biso   1.000  O
