data_image0
_cell_length_a       30.3622
_cell_length_b       3.9264
_cell_length_c       7.8528
_cell_angle_alpha    90
_cell_angle_beta     90
_cell_angle_gamma    90

_symmetry_space_group_name_H-M    "P 1"
_symmetry_int_tables_number       1

loop_
  _symmetry_equiv_pos_as_xyz
  'x, y, z'

loop_
  _atom_site_label
  _atom_site_occupancy
  _atom_site_fract_x
  _atom_site_fract_y
  _atom_site_fract_z
  _atom_site_thermal_displace_type
  _atom_site_B_iso_or_equiv
  _atom_site_type_symbol
  K1       1.0000 0.25000  0.00000  0.76484  Biso   1.000  K
  K2       1.0000 0.75000  0.00000  0.73516  Biso   1.000  K
  K3       1.0000 0.25000  0.00000  0.26484  Biso   1.000  K
  K4       1.0000 0.75000  0.00000  0.23516  Biso   1.000  K
  Pb1      1.0000 0.07250  0.00000  0.74972  Biso   1.000  Pb
  Pb2      1.0000 0.57424  0.00000  0.75028  Biso   1.000  Pb
  Pb3      1.0000 0.07424  0.00000  0.24972  Biso   1.000  Pb
  Pb4      1.0000 0.57250  0.00000  0.25028  Biso   1.000  Pb
  Pb5      1.0000 0.92750  0.00000  0.25028  Biso   1.000  Pb
  Pb6      1.0000 0.42576  0.00000  0.24972  Biso   1.000  Pb
  Pb7      1.0000 0.92576  0.00000  0.75028  Biso   1.000  Pb
  Pb8      1.0000 0.42750  0.00000  0.74972  Biso   1.000  Pb
  Nb1      1.0000 0.00000  0.50000  0.50000  Biso   1.000  Nb
  Nb2      1.0000 0.50000  0.50000  0.50000  Biso   1.000  Nb
  Nb3      1.0000 0.00000  0.50000  0.00000  Biso   1.000  Nb
  Nb4      1.0000 0.50000  0.50000  0.00000  Biso   1.000  Nb
  Ta1      1.0000 0.14358  0.50000  0.49934  Biso   1.000  Ta
  Ta2      1.0000 0.64358  0.50000  0.50066  Biso   1.000  Ta
  Ta3      1.0000 0.14358  0.50000  0.99900  Biso   1.000  Ta
  Ta4      1.0000 0.64358  0.50000  0.00100  Biso   1.000  Ta
  Ta5      1.0000 0.85642  0.50000  0.50066  Biso   1.000  Ta
  Ta6      1.0000 0.35642  0.50000  0.49934  Biso   1.000  Ta
  Ta7      1.0000 0.85642  0.50000  0.00100  Biso   1.000  Ta
  Ta8      1.0000 0.35642  0.50000  0.99900  Biso   1.000  Ta
  O1       1.0000 0.00646  0.50000  0.75000  Biso   1.000  O
  O2       1.0000 0.49354  0.50000  0.75000  Biso   1.000  O
  O3       1.0000 0.99354  0.50000  0.25000  Biso   1.000  O
  O4       1.0000 0.50646  0.50000  0.25000  Biso   1.000  O
  O5       1.0000 0.00000  0.00000  0.50000  Biso   1.000  O
  O6       1.0000 0.50000  0.00000  0.50000  Biso   1.000  O
  O7       1.0000 0.00000  0.00000  0.00000  Biso   1.000  O
  O8       1.0000 0.50000  0.00000  0.00000  Biso   1.000  O
  O9       1.0000 0.06512  0.50000  0.49478  Biso   1.000  O
  O10      1.0000 0.56512  0.50000  0.50522  Biso   1.000  O
  O11      1.0000 0.06512  0.50000  0.00485  Biso   1.000  O
  O12      1.0000 0.56512  0.50000  0.99515  Biso   1.000  O
  O13      1.0000 0.93488  0.50000  0.50522  Biso   1.000  O
  O14      1.0000 0.43488  0.50000  0.49478  Biso   1.000  O
  O15      1.0000 0.93488  0.50000  0.99515  Biso   1.000  O
  O16      1.0000 0.43488  0.50000  0.00485  Biso   1.000  O
  O17      1.0000 0.12840  0.50000  0.74971  Biso   1.000  O
  O18      1.0000 0.63396  0.50000  0.75029  Biso   1.000  O
  O19      1.0000 0.13396  0.50000  0.24971  Biso   1.000  O
  O20      1.0000 0.62840  0.50000  0.25029  Biso   1.000  O
  O21      1.0000 0.87160  0.50000  0.25029  Biso   1.000  O
  O22      1.0000 0.36604  0.50000  0.24971  Biso   1.000  O
  O23      1.0000 0.86604  0.50000  0.75029  Biso   1.000  O
  O24      1.0000 0.37160  0.50000  0.74971  Biso   1.000  O
  O25      1.0000 0.86882  0.00000  0.49968  Biso   1.000  O
  O26      1.0000 0.36882  0.00000  0.50032  Biso   1.000  O
  O27      1.0000 0.86882  0.00000  0.00091  Biso   1.000  O
  O28      1.0000 0.36882  0.00000  0.99909  Biso   1.000  O
  O29      1.0000 0.13118  0.00000  0.50032  Biso   1.000  O
  O30      1.0000 0.63118  0.00000  0.49968  Biso   1.000  O
  O31      1.0000 0.13118  0.00000  0.99909  Biso   1.000  O
  O32      1.0000 0.63118  0.00000  0.00091  Biso   1.000  O
  O33      1.0000 0.20187  0.50000  0.49985  Biso   1.000  O
  O34      1.0000 0.70187  0.50000  0.50015  Biso   1.000  O
  O35      1.0000 0.20187  0.50000  0.99775  Biso   1.000  O
  O36      1.0000 0.70187  0.50000  0.00225  Biso   1.000  O
  O37      1.0000 0.79813  0.50000  0.50015  Biso   1.000  O
  O38      1.0000 0.29813  0.50000  0.49985  Biso   1.000  O
  O39      1.0000 0.79813  0.50000  0.00225  Biso   1.000  O
  O40      1.0000 0.29813  0.50000  0.99775  Biso   1.000  O
