data_image0
_cell_length_a       3.9264
_cell_length_b       3.9264
_cell_length_c       30.3622
_cell_angle_alpha    90
_cell_angle_beta     90
_cell_angle_gamma    90

_symmetry_space_group_name_H-M    "P 1"
_symmetry_int_tables_number       1

loop_
  _symmetry_equiv_pos_as_xyz
  'x, y, z'

loop_
  _atom_site_label
  _atom_site_occupancy
  _atom_site_fract_x
  _atom_site_fract_y
  _atom_site_fract_z
  _atom_site_thermal_displace_type
  _atom_site_B_iso_or_equiv
  _atom_site_type_symbol
  K1       1.0000 0.98516  0.98516  0.50000  Biso   1.000  K
  K2       1.0000 0.01484  0.01484  0.00000  Biso   1.000  K
  Pb1      1.0000 0.00173  0.99883  0.67663  Biso   1.000  Pb
  Pb2      1.0000 0.99827  0.00117  0.17663  Biso   1.000  Pb
  Pb3      1.0000 0.00117  0.99827  0.82337  Biso   1.000  Pb
  Pb4      1.0000 0.99883  0.00173  0.32337  Biso   1.000  Pb
  Nb1      1.0000 0.50000  0.50000  0.75000  Biso   1.000  Nb
  Nb2      1.0000 0.50000  0.50000  0.25000  Biso   1.000  Nb
  Ta1      1.0000 0.50685  0.49481  0.60642  Biso   1.000  Ta
  Ta2      1.0000 0.49315  0.50519  0.10642  Biso   1.000  Ta
  Ta3      1.0000 0.50519  0.49315  0.89358  Biso   1.000  Ta
  Ta4      1.0000 0.49481  0.50685  0.39358  Biso   1.000  Ta
  O1       1.0000 0.50725  0.99610  0.75000  Biso   1.000  O
  O2       1.0000 0.49275  0.00390  0.25000  Biso   1.000  O
  O3       1.0000 0.00390  0.49275  0.75000  Biso   1.000  O
  O4       1.0000 0.99610  0.50725  0.25000  Biso   1.000  O
  O5       1.0000 0.50470  0.49567  0.68488  Biso   1.000  O
  O6       1.0000 0.49530  0.50433  0.18488  Biso   1.000  O
  O7       1.0000 0.50433  0.49530  0.81512  Biso   1.000  O
  O8       1.0000 0.49567  0.50470  0.31512  Biso   1.000  O
  O9       1.0000 0.50311  0.99787  0.61882  Biso   1.000  O
  O10      1.0000 0.49689  0.00213  0.11882  Biso   1.000  O
  O11      1.0000 0.50252  0.99729  0.88118  Biso   1.000  O
  O12      1.0000 0.49748  0.00271  0.38118  Biso   1.000  O
  O13      1.0000 0.00213  0.49689  0.88118  Biso   1.000  O
  O14      1.0000 0.99787  0.50311  0.38118  Biso   1.000  O
  O15      1.0000 0.00271  0.49748  0.61882  Biso   1.000  O
  O16      1.0000 0.99729  0.50252  0.11882  Biso   1.000  O
  O17      1.0000 0.50368  0.49873  0.54813  Biso   1.000  O
  O18      1.0000 0.49632  0.50127  0.04813  Biso   1.000  O
  O19      1.0000 0.50127  0.49632  0.95187  Biso   1.000  O
  O20      1.0000 0.49873  0.50368  0.45187  Biso   1.000  O
