data_image0
_cell_length_a       5.55277
_cell_length_b       30.3622
_cell_length_c       7.8528
_cell_angle_alpha    90
_cell_angle_beta     135
_cell_angle_gamma    90

_symmetry_space_group_name_H-M    "P 1"
_symmetry_int_tables_number       1

loop_
  _symmetry_equiv_pos_as_xyz
  'x, y, z'

loop_
  _atom_site_label
  _atom_site_occupancy
  _atom_site_fract_x
  _atom_site_fract_y
  _atom_site_fract_z
  _atom_site_thermal_displace_type
  _atom_site_B_iso_or_equiv
  _atom_site_type_symbol
  K1       1.0000 0.02968  0.25000  0.26484  Biso   1.000  K
  K2       1.0000 0.97032  0.75000  0.23516  Biso   1.000  K
  K3       1.0000 0.02968  0.25000  0.76484  Biso   1.000  K
  K4       1.0000 0.97032  0.75000  0.73516  Biso   1.000  K
  Pb1      1.0000 0.99269  0.07337  0.24972  Biso   1.000  Pb
  Pb2      1.0000 0.00731  0.57337  0.25028  Biso   1.000  Pb
  Pb3      1.0000 0.00618  0.07337  0.74972  Biso   1.000  Pb
  Pb4      1.0000 0.99382  0.57337  0.75028  Biso   1.000  Pb
  Pb5      1.0000 0.00731  0.92663  0.75028  Biso   1.000  Pb
  Pb6      1.0000 0.99269  0.42663  0.74972  Biso   1.000  Pb
  Pb7      1.0000 0.99382  0.92663  0.25028  Biso   1.000  Pb
  Pb8      1.0000 0.00618  0.42663  0.24972  Biso   1.000  Pb
  Nb1      1.0000 0.49937  0.00000  0.75000  Biso   1.000  Nb
  Nb2      1.0000 0.50063  0.50000  0.75000  Biso   1.000  Nb
  Nb3      1.0000 0.50063  0.00000  0.25000  Biso   1.000  Nb
  Nb4      1.0000 0.49937  0.50000  0.25000  Biso   1.000  Nb
  Ta1      1.0000 0.50022  0.14358  0.74917  Biso   1.000  Ta
  Ta2      1.0000 0.49978  0.64358  0.75083  Biso   1.000  Ta
  Ta3      1.0000 0.49647  0.14358  0.24917  Biso   1.000  Ta
  Ta4      1.0000 0.50353  0.64358  0.25083  Biso   1.000  Ta
  Ta5      1.0000 0.50353  0.85642  0.75083  Biso   1.000  Ta
  Ta6      1.0000 0.49647  0.35642  0.74917  Biso   1.000  Ta
  Ta7      1.0000 0.49978  0.85642  0.25083  Biso   1.000  Ta
  Ta8      1.0000 0.50022  0.35642  0.24917  Biso   1.000  Ta
  O1       1.0000 0.00000  0.00000  0.00000  Biso   1.000  O
  O2       1.0000 0.00000  0.50000  0.00000  Biso   1.000  O
  O3       1.0000 0.00000  0.00000  0.50000  Biso   1.000  O
  O4       1.0000 0.00000  0.50000  0.50000  Biso   1.000  O
  O5       1.0000 0.50000  0.00000  0.50000  Biso   1.000  O
  O6       1.0000 0.50000  0.50000  0.50000  Biso   1.000  O
  O7       1.0000 0.50000  0.00000  0.00000  Biso   1.000  O
  O8       1.0000 0.50000  0.50000  0.00000  Biso   1.000  O
  O9       1.0000 0.49379  0.06512  0.74981  Biso   1.000  O
  O10      1.0000 0.50621  0.56512  0.75019  Biso   1.000  O
  O11      1.0000 0.50546  0.06512  0.24981  Biso   1.000  O
  O12      1.0000 0.49454  0.56512  0.25019  Biso   1.000  O
  O13      1.0000 0.49454  0.93488  0.75019  Biso   1.000  O
  O14      1.0000 0.50546  0.43488  0.74981  Biso   1.000  O
  O15      1.0000 0.50621  0.93488  0.25019  Biso   1.000  O
  O16      1.0000 0.49379  0.43488  0.24981  Biso   1.000  O
  O17      1.0000 0.99942  0.12902  0.99971  Biso   1.000  O
  O18      1.0000 0.00058  0.63334  0.00029  Biso   1.000  O
  O19      1.0000 0.99942  0.13334  0.49971  Biso   1.000  O
  O20      1.0000 0.00058  0.62902  0.50029  Biso   1.000  O
  O21      1.0000 0.00058  0.86666  0.50029  Biso   1.000  O
  O22      1.0000 0.99942  0.37098  0.49971  Biso   1.000  O
  O23      1.0000 0.00058  0.87098  0.00029  Biso   1.000  O
  O24      1.0000 0.99942  0.36666  0.99971  Biso   1.000  O
  O25      1.0000 0.50059  0.87098  0.50029  Biso   1.000  O
  O26      1.0000 0.49941  0.36666  0.49971  Biso   1.000  O
  O27      1.0000 0.50059  0.86666  0.00029  Biso   1.000  O
  O28      1.0000 0.49941  0.37098  0.99971  Biso   1.000  O
  O29      1.0000 0.49941  0.12902  0.49971  Biso   1.000  O
  O30      1.0000 0.50059  0.63334  0.50029  Biso   1.000  O
  O31      1.0000 0.49941  0.13334  0.99971  Biso   1.000  O
  O32      1.0000 0.50059  0.62902  0.00029  Biso   1.000  O
  O33      1.0000 0.50085  0.20187  0.74880  Biso   1.000  O
  O34      1.0000 0.49915  0.70187  0.75120  Biso   1.000  O
  O35      1.0000 0.49434  0.20187  0.24880  Biso   1.000  O
  O36      1.0000 0.50566  0.70187  0.25120  Biso   1.000  O
  O37      1.0000 0.50566  0.79813  0.75120  Biso   1.000  O
  O38      1.0000 0.49434  0.29813  0.74880  Biso   1.000  O
  O39      1.0000 0.49915  0.79813  0.25120  Biso   1.000  O
  O40      1.0000 0.50085  0.29813  0.24880  Biso   1.000  O
