data_image0
_cell_length_a       5.55277
_cell_length_b       30.3622
_cell_length_c       5.55277
_cell_angle_alpha    90
_cell_angle_beta     90
_cell_angle_gamma    90

_symmetry_space_group_name_H-M    "P 1"
_symmetry_int_tables_number       1

loop_
  _symmetry_equiv_pos_as_xyz
  'x, y, z'

loop_
  _atom_site_label
  _atom_site_occupancy
  _atom_site_fract_x
  _atom_site_fract_y
  _atom_site_fract_z
  _atom_site_thermal_displace_type
  _atom_site_B_iso_or_equiv
  _atom_site_type_symbol
  K1       1.0000 0.76129  0.50000  0.25000  Biso   1.000  K
  K2       1.0000 0.76129  0.00000  0.25000  Biso   1.000  K
  K3       1.0000 0.23871  0.50000  0.75000  Biso   1.000  K
  K4       1.0000 0.23871  0.00000  0.75000  Biso   1.000  K
  Pb1      1.0000 0.74482  0.67663  0.24855  Biso   1.000  Pb
  Pb2      1.0000 0.74772  0.17663  0.25145  Biso   1.000  Pb
  Pb3      1.0000 0.25228  0.67663  0.74855  Biso   1.000  Pb
  Pb4      1.0000 0.25518  0.17663  0.75145  Biso   1.000  Pb
  Pb5      1.0000 0.25228  0.82337  0.74855  Biso   1.000  Pb
  Pb6      1.0000 0.25518  0.32337  0.75145  Biso   1.000  Pb
  Pb7      1.0000 0.74482  0.82337  0.24855  Biso   1.000  Pb
  Pb8      1.0000 0.74772  0.32337  0.25145  Biso   1.000  Pb
  Nb1      1.0000 0.74991  0.75000  0.75000  Biso   1.000  Nb
  Nb2      1.0000 0.74991  0.25000  0.75000  Biso   1.000  Nb
  Nb3      1.0000 0.25009  0.75000  0.25000  Biso   1.000  Nb
  Nb4      1.0000 0.25009  0.25000  0.25000  Biso   1.000  Nb
  Ta1      1.0000 0.74573  0.60642  0.74398  Biso   1.000  Ta
  Ta2      1.0000 0.75776  0.10642  0.75602  Biso   1.000  Ta
  Ta3      1.0000 0.24224  0.60642  0.24398  Biso   1.000  Ta
  Ta4      1.0000 0.25427  0.10642  0.25602  Biso   1.000  Ta
  Ta5      1.0000 0.74573  0.89358  0.74398  Biso   1.000  Ta
  Ta6      1.0000 0.75776  0.39358  0.75602  Biso   1.000  Ta
  Ta7      1.0000 0.24224  0.89358  0.24398  Biso   1.000  Ta
  Ta8      1.0000 0.25427  0.39358  0.25602  Biso   1.000  Ta
  O1       1.0000 0.99275  0.75000  0.49275  Biso   1.000  O
  O2       1.0000 0.00725  0.25000  0.50725  Biso   1.000  O
  O3       1.0000 0.49275  0.75000  0.99275  Biso   1.000  O
  O4       1.0000 0.50725  0.25000  0.00725  Biso   1.000  O
  O5       1.0000 0.99610  0.75000  0.99610  Biso   1.000  O
  O6       1.0000 0.00390  0.25000  0.00390  Biso   1.000  O
  O7       1.0000 0.49610  0.75000  0.49610  Biso   1.000  O
  O8       1.0000 0.50390  0.25000  0.50390  Biso   1.000  O
  O9       1.0000 0.74375  0.68488  0.74549  Biso   1.000  O
  O10      1.0000 0.75278  0.18488  0.75451  Biso   1.000  O
  O11      1.0000 0.24722  0.68488  0.24549  Biso   1.000  O
  O12      1.0000 0.25625  0.18488  0.25451  Biso   1.000  O
  O13      1.0000 0.74375  0.81512  0.74549  Biso   1.000  O
  O14      1.0000 0.75278  0.31512  0.75451  Biso   1.000  O
  O15      1.0000 0.24722  0.81512  0.24549  Biso   1.000  O
  O16      1.0000 0.25625  0.31512  0.25451  Biso   1.000  O
  O17      1.0000 0.99719  0.62012  0.49719  Biso   1.000  O
  O18      1.0000 0.00281  0.12012  0.50281  Biso   1.000  O
  O19      1.0000 0.49719  0.61752  0.99719  Biso   1.000  O
  O20      1.0000 0.50281  0.11752  0.00281  Biso   1.000  O
  O21      1.0000 0.49719  0.88248  0.99719  Biso   1.000  O
  O22      1.0000 0.50281  0.38248  0.00281  Biso   1.000  O
  O23      1.0000 0.99719  0.87988  0.49719  Biso   1.000  O
  O24      1.0000 0.00281  0.37988  0.50281  Biso   1.000  O
  O25      1.0000 0.99758  0.87988  0.99758  Biso   1.000  O
  O26      1.0000 0.00242  0.37988  0.00242  Biso   1.000  O
  O27      1.0000 0.49758  0.88248  0.49758  Biso   1.000  O
  O28      1.0000 0.50242  0.38248  0.50242  Biso   1.000  O
  O29      1.0000 0.99758  0.62012  0.99758  Biso   1.000  O
  O30      1.0000 0.00242  0.12012  0.00242  Biso   1.000  O
  O31      1.0000 0.49758  0.61752  0.49758  Biso   1.000  O
  O32      1.0000 0.50242  0.11752  0.50242  Biso   1.000  O
  O33      1.0000 0.75222  0.54813  0.74753  Biso   1.000  O
  O34      1.0000 0.75716  0.04813  0.75247  Biso   1.000  O
  O35      1.0000 0.24284  0.54813  0.24753  Biso   1.000  O
  O36      1.0000 0.24778  0.04813  0.25247  Biso   1.000  O
  O37      1.0000 0.75222  0.95187  0.74753  Biso   1.000  O
  O38      1.0000 0.75716  0.45187  0.75247  Biso   1.000  O
  O39      1.0000 0.24284  0.95187  0.24753  Biso   1.000  O
  O40      1.0000 0.24778  0.45187  0.25247  Biso   1.000  O
