data_image0
_cell_length_a       5.55277
_cell_length_b       30.3622
_cell_length_c       5.55277
_cell_angle_alpha    90
_cell_angle_beta     90
_cell_angle_gamma    90

_symmetry_space_group_name_H-M    "P 1"
_symmetry_int_tables_number       1

loop_
  _symmetry_equiv_pos_as_xyz
  'x, y, z'

loop_
  _atom_site_label
  _atom_site_occupancy
  _atom_site_fract_x
  _atom_site_fract_y
  _atom_site_fract_z
  _atom_site_thermal_displace_type
  _atom_site_B_iso_or_equiv
  _atom_site_type_symbol
  K1       1.0000 0.00000  0.50000  0.50000  Biso   1.000  K
  K2       1.0000 0.00000  0.00000  0.50000  Biso   1.000  K
  K3       1.0000 0.50000  0.50000  0.00000  Biso   1.000  K
  K4       1.0000 0.50000  0.00000  0.00000  Biso   1.000  K
  Pb1      1.0000 0.99180  0.67663  0.49855  Biso   1.000  Pb
  Pb2      1.0000 0.00820  0.17663  0.50145  Biso   1.000  Pb
  Pb3      1.0000 0.50530  0.67663  0.99855  Biso   1.000  Pb
  Pb4      1.0000 0.49470  0.17663  0.00145  Biso   1.000  Pb
  Pb5      1.0000 0.50530  0.82337  0.99855  Biso   1.000  Pb
  Pb6      1.0000 0.49470  0.32337  0.00145  Biso   1.000  Pb
  Pb7      1.0000 0.99180  0.82337  0.49855  Biso   1.000  Pb
  Pb8      1.0000 0.00820  0.32337  0.50145  Biso   1.000  Pb
  Nb1      1.0000 0.99937  0.75000  0.00000  Biso   1.000  Nb
  Nb2      1.0000 0.00063  0.25000  0.00000  Biso   1.000  Nb
  Nb3      1.0000 0.50063  0.75000  0.50000  Biso   1.000  Nb
  Nb4      1.0000 0.49937  0.25000  0.50000  Biso   1.000  Nb
  Ta1      1.0000 0.99586  0.60642  0.99398  Biso   1.000  Ta
  Ta2      1.0000 0.00414  0.10642  0.00602  Biso   1.000  Ta
  Ta3      1.0000 0.49211  0.60642  0.49398  Biso   1.000  Ta
  Ta4      1.0000 0.50789  0.10642  0.50602  Biso   1.000  Ta
  Ta5      1.0000 0.99586  0.89358  0.99398  Biso   1.000  Ta
  Ta6      1.0000 0.00414  0.39358  0.00602  Biso   1.000  Ta
  Ta7      1.0000 0.49211  0.89358  0.49398  Biso   1.000  Ta
  Ta8      1.0000 0.50789  0.39358  0.50602  Biso   1.000  Ta
  O1       1.0000 0.24275  0.75000  0.74275  Biso   1.000  O
  O2       1.0000 0.25725  0.25000  0.75725  Biso   1.000  O
  O3       1.0000 0.74275  0.75000  0.24275  Biso   1.000  O
  O4       1.0000 0.75725  0.25000  0.25725  Biso   1.000  O
  O5       1.0000 0.24610  0.75000  0.24610  Biso   1.000  O
  O6       1.0000 0.25390  0.25000  0.25390  Biso   1.000  O
  O7       1.0000 0.74610  0.75000  0.74610  Biso   1.000  O
  O8       1.0000 0.75390  0.25000  0.75390  Biso   1.000  O
  O9       1.0000 0.98965  0.68488  0.99549  Biso   1.000  O
  O10      1.0000 0.01035  0.18488  0.00451  Biso   1.000  O
  O11      1.0000 0.50132  0.68488  0.49549  Biso   1.000  O
  O12      1.0000 0.49868  0.18488  0.50451  Biso   1.000  O
  O13      1.0000 0.98965  0.81512  0.99549  Biso   1.000  O
  O14      1.0000 0.01035  0.31512  0.00451  Biso   1.000  O
  O15      1.0000 0.50132  0.81512  0.49549  Biso   1.000  O
  O16      1.0000 0.49868  0.31512  0.50451  Biso   1.000  O
  O17      1.0000 0.24719  0.62098  0.74719  Biso   1.000  O
  O18      1.0000 0.25281  0.11666  0.75281  Biso   1.000  O
  O19      1.0000 0.74719  0.61666  0.24719  Biso   1.000  O
  O20      1.0000 0.75281  0.12098  0.25281  Biso   1.000  O
  O21      1.0000 0.74719  0.88334  0.24719  Biso   1.000  O
  O22      1.0000 0.75281  0.37902  0.25281  Biso   1.000  O
  O23      1.0000 0.24719  0.87902  0.74719  Biso   1.000  O
  O24      1.0000 0.25281  0.38334  0.75281  Biso   1.000  O
  O25      1.0000 0.24758  0.87902  0.24758  Biso   1.000  O
  O26      1.0000 0.25242  0.38334  0.25242  Biso   1.000  O
  O27      1.0000 0.74758  0.88334  0.74758  Biso   1.000  O
  O28      1.0000 0.75242  0.37902  0.75242  Biso   1.000  O
  O29      1.0000 0.24758  0.62098  0.24758  Biso   1.000  O
  O30      1.0000 0.25242  0.11666  0.25242  Biso   1.000  O
  O31      1.0000 0.74758  0.61666  0.74758  Biso   1.000  O
  O32      1.0000 0.75242  0.12098  0.75242  Biso   1.000  O
  O33      1.0000 0.00078  0.54813  0.99753  Biso   1.000  O
  O34      1.0000 0.99922  0.04813  0.00247  Biso   1.000  O
  O35      1.0000 0.49427  0.54813  0.49753  Biso   1.000  O
  O36      1.0000 0.50573  0.04813  0.50247  Biso   1.000  O
  O37      1.0000 0.00078  0.95187  0.99753  Biso   1.000  O
  O38      1.0000 0.99922  0.45187  0.00247  Biso   1.000  O
  O39      1.0000 0.49427  0.95187  0.49753  Biso   1.000  O
  O40      1.0000 0.50573  0.45187  0.50247  Biso   1.000  O
