data_image0
_cell_length_a       3.9264
_cell_length_b       30.3622
_cell_length_c       7.8528
_cell_angle_alpha    90
_cell_angle_beta     90
_cell_angle_gamma    90

_symmetry_space_group_name_H-M    "P 1"
_symmetry_int_tables_number       1

loop_
  _symmetry_equiv_pos_as_xyz
  'x, y, z'

loop_
  _atom_site_label
  _atom_site_occupancy
  _atom_site_fract_x
  _atom_site_fract_y
  _atom_site_fract_z
  _atom_site_thermal_displace_type
  _atom_site_B_iso_or_equiv
  _atom_site_type_symbol
  K1       1.0000 0.02121  0.50000  0.75000  Biso   1.000  K
  K2       1.0000 0.97879  0.00000  0.75000  Biso   1.000  K
  K3       1.0000 0.97879  0.50000  0.25000  Biso   1.000  K
  K4       1.0000 0.02121  0.00000  0.25000  Biso   1.000  K
  Pb1      1.0000 0.00299  0.67663  0.75000  Biso   1.000  Pb
  Pb2      1.0000 0.99701  0.17663  0.75000  Biso   1.000  Pb
  Pb3      1.0000 0.00281  0.67663  0.25000  Biso   1.000  Pb
  Pb4      1.0000 0.99719  0.17663  0.25000  Biso   1.000  Pb
  Pb5      1.0000 0.00299  0.82337  0.25000  Biso   1.000  Pb
  Pb6      1.0000 0.99701  0.32337  0.25000  Biso   1.000  Pb
  Pb7      1.0000 0.00281  0.82337  0.75000  Biso   1.000  Pb
  Pb8      1.0000 0.99719  0.32337  0.75000  Biso   1.000  Pb
  Nb1      1.0000 0.50000  0.75000  0.50000  Biso   1.000  Nb
  Nb2      1.0000 0.50000  0.25000  0.50000  Biso   1.000  Nb
  Nb3      1.0000 0.50000  0.75000  0.00000  Biso   1.000  Nb
  Nb4      1.0000 0.50000  0.25000  0.00000  Biso   1.000  Nb
  Ta1      1.0000 0.51204  0.60642  0.50000  Biso   1.000  Ta
  Ta2      1.0000 0.48796  0.10642  0.50000  Biso   1.000  Ta
  Ta3      1.0000 0.51204  0.60642  0.00000  Biso   1.000  Ta
  Ta4      1.0000 0.48796  0.10642  0.00000  Biso   1.000  Ta
  Ta5      1.0000 0.51204  0.89358  0.50000  Biso   1.000  Ta
  Ta6      1.0000 0.48796  0.39358  0.50000  Biso   1.000  Ta
  Ta7      1.0000 0.51204  0.89358  0.00000  Biso   1.000  Ta
  Ta8      1.0000 0.48796  0.39358  0.00000  Biso   1.000  Ta
  O1       1.0000 0.51451  0.75000  0.75000  Biso   1.000  O
  O2       1.0000 0.48549  0.25000  0.75000  Biso   1.000  O
  O3       1.0000 0.51451  0.75000  0.25000  Biso   1.000  O
  O4       1.0000 0.48549  0.25000  0.25000  Biso   1.000  O
  O5       1.0000 0.00780  0.75000  0.50000  Biso   1.000  O
  O6       1.0000 0.99220  0.25000  0.50000  Biso   1.000  O
  O7       1.0000 0.00780  0.75000  0.00000  Biso   1.000  O
  O8       1.0000 0.99220  0.25000  0.00000  Biso   1.000  O
  O9       1.0000 0.50903  0.68488  0.50000  Biso   1.000  O
  O10      1.0000 0.49097  0.18488  0.50000  Biso   1.000  O
  O11      1.0000 0.50903  0.68488  0.00000  Biso   1.000  O
  O12      1.0000 0.49097  0.18488  0.00000  Biso   1.000  O
  O13      1.0000 0.50903  0.81512  0.50000  Biso   1.000  O
  O14      1.0000 0.49097  0.31512  0.50000  Biso   1.000  O
  O15      1.0000 0.50903  0.81512  0.00000  Biso   1.000  O
  O16      1.0000 0.49097  0.31512  0.00000  Biso   1.000  O
  O17      1.0000 0.50551  0.61882  0.75000  Biso   1.000  O
  O18      1.0000 0.49449  0.11882  0.75000  Biso   1.000  O
  O19      1.0000 0.50575  0.61882  0.25000  Biso   1.000  O
  O20      1.0000 0.49425  0.11882  0.25000  Biso   1.000  O
  O21      1.0000 0.50551  0.88118  0.25000  Biso   1.000  O
  O22      1.0000 0.49449  0.38118  0.25000  Biso   1.000  O
  O23      1.0000 0.50575  0.88118  0.75000  Biso   1.000  O
  O24      1.0000 0.49425  0.38118  0.75000  Biso   1.000  O
  O25      1.0000 0.00484  0.88118  0.50000  Biso   1.000  O
  O26      1.0000 0.99516  0.38118  0.50000  Biso   1.000  O
  O27      1.0000 0.00484  0.88118  0.00000  Biso   1.000  O
  O28      1.0000 0.99516  0.38118  0.00000  Biso   1.000  O
  O29      1.0000 0.00484  0.61882  0.50000  Biso   1.000  O
  O30      1.0000 0.99516  0.11882  0.50000  Biso   1.000  O
  O31      1.0000 0.00484  0.61882  0.00000  Biso   1.000  O
  O32      1.0000 0.99516  0.11882  0.00000  Biso   1.000  O
  O33      1.0000 0.50495  0.54813  0.50000  Biso   1.000  O
  O34      1.0000 0.49505  0.04813  0.50000  Biso   1.000  O
  O35      1.0000 0.50495  0.54813  0.00000  Biso   1.000  O
  O36      1.0000 0.49505  0.04813  0.00000  Biso   1.000  O
  O37      1.0000 0.50495  0.95187  0.50000  Biso   1.000  O
  O38      1.0000 0.49505  0.45187  0.50000  Biso   1.000  O
  O39      1.0000 0.50495  0.95187  0.00000  Biso   1.000  O
  O40      1.0000 0.49505  0.45187  0.00000  Biso   1.000  O
