data_image0
_cell_length_a       7.8528
_cell_length_b       3.9264
_cell_length_c       30.3622
_cell_angle_alpha    90
_cell_angle_beta     90
_cell_angle_gamma    90

_symmetry_space_group_name_H-M    "P 1"
_symmetry_int_tables_number       1

loop_
  _symmetry_equiv_pos_as_xyz
  'x, y, z'

loop_
  _atom_site_label
  _atom_site_occupancy
  _atom_site_fract_x
  _atom_site_fract_y
  _atom_site_fract_z
  _atom_site_thermal_displace_type
  _atom_site_B_iso_or_equiv
  _atom_site_type_symbol
  K1       1.0000 0.00000  0.00000  0.50000  Biso   1.000  K
  K2       1.0000 0.00000  0.00000  0.00000  Biso   1.000  K
  K3       1.0000 0.50000  0.00000  0.50000  Biso   1.000  K
  K4       1.0000 0.50000  0.00000  0.00000  Biso   1.000  K
  Pb1      1.0000 0.00000  0.00290  0.67750  Biso   1.000  Pb
  Pb2      1.0000 0.00000  0.99710  0.17576  Biso   1.000  Pb
  Pb3      1.0000 0.50000  0.00290  0.67576  Biso   1.000  Pb
  Pb4      1.0000 0.50000  0.99710  0.17750  Biso   1.000  Pb
  Pb5      1.0000 0.50000  0.00290  0.82250  Biso   1.000  Pb
  Pb6      1.0000 0.50000  0.99710  0.32424  Biso   1.000  Pb
  Pb7      1.0000 0.00000  0.00290  0.82424  Biso   1.000  Pb
  Pb8      1.0000 0.00000  0.99710  0.32250  Biso   1.000  Pb
  Nb1      1.0000 0.75000  0.50000  0.75000  Biso   1.000  Nb
  Nb2      1.0000 0.75000  0.50000  0.25000  Biso   1.000  Nb
  Nb3      1.0000 0.25000  0.50000  0.75000  Biso   1.000  Nb
  Nb4      1.0000 0.25000  0.50000  0.25000  Biso   1.000  Nb
  Ta1      1.0000 0.75017  0.51204  0.60642  Biso   1.000  Ta
  Ta2      1.0000 0.74983  0.48796  0.10642  Biso   1.000  Ta
  Ta3      1.0000 0.24983  0.51204  0.60642  Biso   1.000  Ta
  Ta4      1.0000 0.25017  0.48796  0.10642  Biso   1.000  Ta
  Ta5      1.0000 0.74983  0.51204  0.89358  Biso   1.000  Ta
  Ta6      1.0000 0.75017  0.48796  0.39358  Biso   1.000  Ta
  Ta7      1.0000 0.25017  0.51204  0.89358  Biso   1.000  Ta
  Ta8      1.0000 0.24983  0.48796  0.39358  Biso   1.000  Ta
  O1       1.0000 0.00000  0.51451  0.74354  Biso   1.000  O
  O2       1.0000 0.00000  0.48549  0.25646  Biso   1.000  O
  O3       1.0000 0.50000  0.51451  0.75646  Biso   1.000  O
  O4       1.0000 0.50000  0.48549  0.24354  Biso   1.000  O
  O5       1.0000 0.75000  0.00780  0.75000  Biso   1.000  O
  O6       1.0000 0.75000  0.99220  0.25000  Biso   1.000  O
  O7       1.0000 0.25000  0.00780  0.75000  Biso   1.000  O
  O8       1.0000 0.25000  0.99220  0.25000  Biso   1.000  O
  O9       1.0000 0.74496  0.50903  0.68488  Biso   1.000  O
  O10      1.0000 0.75504  0.49097  0.18488  Biso   1.000  O
  O11      1.0000 0.25504  0.50903  0.68488  Biso   1.000  O
  O12      1.0000 0.24496  0.49097  0.18488  Biso   1.000  O
  O13      1.0000 0.75504  0.50903  0.81512  Biso   1.000  O
  O14      1.0000 0.74496  0.49097  0.31512  Biso   1.000  O
  O15      1.0000 0.24496  0.50903  0.81512  Biso   1.000  O
  O16      1.0000 0.25504  0.49097  0.31512  Biso   1.000  O
  O17      1.0000 0.00000  0.50563  0.62160  Biso   1.000  O
  O18      1.0000 0.00000  0.49437  0.11604  Biso   1.000  O
  O19      1.0000 0.50000  0.50563  0.61604  Biso   1.000  O
  O20      1.0000 0.50000  0.49437  0.12160  Biso   1.000  O
  O21      1.0000 0.50000  0.50563  0.87840  Biso   1.000  O
  O22      1.0000 0.50000  0.49437  0.38396  Biso   1.000  O
  O23      1.0000 0.00000  0.50563  0.88396  Biso   1.000  O
  O24      1.0000 0.00000  0.49437  0.37840  Biso   1.000  O
  O25      1.0000 0.74938  0.00484  0.88118  Biso   1.000  O
  O26      1.0000 0.75062  0.99516  0.38118  Biso   1.000  O
  O27      1.0000 0.25062  0.00484  0.88118  Biso   1.000  O
  O28      1.0000 0.24938  0.99516  0.38118  Biso   1.000  O
  O29      1.0000 0.75062  0.00484  0.61882  Biso   1.000  O
  O30      1.0000 0.74938  0.99516  0.11882  Biso   1.000  O
  O31      1.0000 0.24938  0.00484  0.61882  Biso   1.000  O
  O32      1.0000 0.25062  0.99516  0.11882  Biso   1.000  O
  O33      1.0000 0.75105  0.50495  0.54813  Biso   1.000  O
  O34      1.0000 0.74895  0.49505  0.04813  Biso   1.000  O
  O35      1.0000 0.24895  0.50495  0.54813  Biso   1.000  O
  O36      1.0000 0.25105  0.49505  0.04813  Biso   1.000  O
  O37      1.0000 0.74895  0.50495  0.95187  Biso   1.000  O
  O38      1.0000 0.75105  0.49505  0.45187  Biso   1.000  O
  O39      1.0000 0.25105  0.50495  0.95187  Biso   1.000  O
  O40      1.0000 0.24895  0.49505  0.45187  Biso   1.000  O
