data_image0
_cell_length_a       15.6806
_cell_length_b       15.6806
_cell_length_c       15.6806
_cell_angle_alpha    159.603
_cell_angle_beta     29.0021
_cell_angle_gamma    159.603

loop_
  _atom_site_label
  _atom_site_occupancy
  _atom_site_fract_x
  _atom_site_fract_y
  _atom_site_fract_z
  _atom_site_thermal_displace_type
  _atom_site_B_iso_or_equiv
  _atom_site_type_symbol
  K1       1.0000 0.23316  0.48316  0.75000  Biso   1.000  K
  K2       1.0000 0.76684  0.51684  0.25000  Biso   1.000  K
  Pb1      1.0000 0.08742  0.51405  0.57337  Biso   1.000  Pb
  Pb2      1.0000 0.55932  0.48595  0.07337  Biso   1.000  Pb
  Pb3      1.0000 0.44068  0.51405  0.92663  Biso   1.000  Pb
  Pb4      1.0000 0.91258  0.48595  0.42663  Biso   1.000  Pb
  Nb1      1.0000 0.00000  0.00000  0.00000  Biso   1.000  Nb
  Nb2      1.0000 0.50000  0.00000  0.50000  Biso   1.000  Nb
  Ta1      1.0000 0.14035  0.99677  0.14358  Biso   1.000  Ta
  Ta2      1.0000 0.64681  0.00323  0.64358  Biso   1.000  Ta
  Ta3      1.0000 0.85965  0.00323  0.85642  Biso   1.000  Ta
  Ta4      1.0000 0.35319  0.99677  0.35642  Biso   1.000  Ta
  O1       1.0000 0.23972  0.00000  0.73972  Biso   1.000  O
  O2       1.0000 0.76028  0.00000  0.26028  Biso   1.000  O
  O3       1.0000 0.23972  0.50000  0.23972  Biso   1.000  O
  O4       1.0000 0.76028  0.50000  0.76028  Biso   1.000  O
  O5       1.0000 0.08471  0.01959  0.06512  Biso   1.000  O
  O6       1.0000 0.54553  0.98041  0.56512  Biso   1.000  O
  O7       1.0000 0.91529  0.98041  0.93488  Biso   1.000  O
  O8       1.0000 0.45447  0.01959  0.43488  Biso   1.000  O
  O9       1.0000 0.38715  0.00000  0.88715  Biso   1.000  O
  O10      1.0000 0.87521  0.00000  0.37521  Biso   1.000  O
  O11      1.0000 0.61285  0.00000  0.11285  Biso   1.000  O
  O12      1.0000 0.12479  0.00000  0.62479  Biso   1.000  O
  O13      1.0000 0.12479  0.50000  0.12479  Biso   1.000  O
  O14      1.0000 0.61285  0.50000  0.61285  Biso   1.000  O
  O15      1.0000 0.38715  0.50000  0.38715  Biso   1.000  O
  O16      1.0000 0.87521  0.50000  0.87521  Biso   1.000  O
  O17      1.0000 0.18910  0.98723  0.20187  Biso   1.000  O
  O18      1.0000 0.71464  0.01277  0.70187  Biso   1.000  O
  O19      1.0000 0.81090  0.01277  0.79813  Biso   1.000  O
  O20      1.0000 0.28536  0.98723  0.29813  Biso   1.000  O
