data_image0
_cell_length_a       15.6806
_cell_length_b       15.6806
_cell_length_c       15.6806
_cell_angle_alpha    159.603
_cell_angle_beta     29.0021
_cell_angle_gamma    159.603

loop_
  _atom_site_label
  _atom_site_occupancy
  _atom_site_fract_x
  _atom_site_fract_y
  _atom_site_fract_z
  _atom_site_thermal_displace_type
  _atom_site_B_iso_or_equiv
  _atom_site_type_symbol
  K1       1.0000 0.00000  0.50000  0.50000  Biso   1.000  K
  K2       1.0000 0.50000  0.50000  0.00000  Biso   1.000  K
  Pb1      1.0000 0.80087  0.47750  0.32337  Biso   1.000  Pb
  Pb2      1.0000 0.34587  0.52250  0.82337  Biso   1.000  Pb
  Pb3      1.0000 0.19913  0.52250  0.67663  Biso   1.000  Pb
  Pb4      1.0000 0.65413  0.47750  0.17663  Biso   1.000  Pb
  Nb1      1.0000 0.74789  0.99789  0.75000  Biso   1.000  Nb
  Nb2      1.0000 0.25211  0.00211  0.25000  Biso   1.000  Nb
  Ta1      1.0000 0.89983  0.00625  0.89358  Biso   1.000  Ta
  Ta2      1.0000 0.38733  0.99375  0.39358  Biso   1.000  Ta
  Ta3      1.0000 0.61267  0.00625  0.60642  Biso   1.000  Ta
  Ta4      1.0000 0.10017  0.99375  0.10642  Biso   1.000  Ta
  O1       1.0000 0.00000  0.00000  0.50000  Biso   1.000  O
  O2       1.0000 0.50000  0.00000  0.00000  Biso   1.000  O
  O3       1.0000 0.00000  0.50000  0.00000  Biso   1.000  O
  O4       1.0000 0.50000  0.50000  0.50000  Biso   1.000  O
  O5       1.0000 0.79568  0.98056  0.81512  Biso   1.000  O
  O6       1.0000 0.33456  0.01944  0.31512  Biso   1.000  O
  O7       1.0000 0.66544  0.98056  0.68488  Biso   1.000  O
  O8       1.0000 0.20432  0.01944  0.18488  Biso   1.000  O
  O9       1.0000 0.12399  0.00000  0.62399  Biso   1.000  O
  O10      1.0000 0.63837  -0.00000  0.13837  Biso   1.000  O
  O11      1.0000 0.36163  0.00000  0.86163  Biso   1.000  O
  O12      1.0000 0.87601  0.00000  0.37601  Biso   1.000  O
  O13      1.0000 0.87601  0.50000  0.87601  Biso   1.000  O
  O14      1.0000 0.36163  0.50000  0.36163  Biso   1.000  O
  O15      1.0000 0.12399  0.50000  0.12399  Biso   1.000  O
  O16      1.0000 0.63837  0.50000  0.63837  Biso   1.000  O
  O17      1.0000 0.96272  0.01085  0.95187  Biso   1.000  O
  O18      1.0000 0.44102  0.98915  0.45187  Biso   1.000  O
  O19      1.0000 0.55898  0.01085  0.54813  Biso   1.000  O
  O20      1.0000 0.03728  0.98915  0.04813  Biso   1.000  O
