data_image0
_cell_length_a       5.55277
_cell_length_b       15.1811
_cell_length_c       5.55277
_cell_angle_alpha    90
_cell_angle_beta     90
_cell_angle_gamma    90

loop_
  _atom_site_label
  _atom_site_occupancy
  _atom_site_fract_x
  _atom_site_fract_y
  _atom_site_fract_z
  _atom_site_thermal_displace_type
  _atom_site_B_iso_or_equiv
  _atom_site_type_symbol
  K1       1.0000 0.50000  0.50000  0.00000  Biso   1.000  K
  K2       1.0000 0.00000  0.50000  0.50000  Biso   1.000  K
  Pb1      1.0000 0.50000  0.14674  0.98436  Biso   1.000  Pb
  Pb2      1.0000 0.00000  0.14674  0.51564  Biso   1.000  Pb
  Pb3      1.0000 0.00000  0.85326  0.48436  Biso   1.000  Pb
  Pb4      1.0000 0.50000  0.85326  0.01564  Biso   1.000  Pb
  Nb1      1.0000 0.00000  0.00000  0.00000  Biso   1.000  Nb
  Nb2      1.0000 0.50000  0.00000  0.50000  Biso   1.000  Nb
  Ta1      1.0000 0.00000  0.28716  0.00351  Biso   1.000  Ta
  Ta2      1.0000 0.50000  0.28716  0.49649  Biso   1.000  Ta
  Ta3      1.0000 0.00000  0.71284  0.99649  Biso   1.000  Ta
  Ta4      1.0000 0.50000  0.71284  0.50351  Biso   1.000  Ta
  O1       1.0000 0.75000  0.02202  0.25000  Biso   1.000  O
  O2       1.0000 0.25000  0.97798  0.75000  Biso   1.000  O
  O3       1.0000 0.25000  0.02202  0.25000  Biso   1.000  O
  O4       1.0000 0.75000  0.97798  0.75000  Biso   1.000  O
  O5       1.0000 0.00000  0.13024  0.97897  Biso   1.000  O
  O6       1.0000 0.50000  0.13024  0.52103  Biso   1.000  O
  O7       1.0000 0.00000  0.86976  0.02103  Biso   1.000  O
  O8       1.0000 0.50000  0.86976  0.47897  Biso   1.000  O
  O9       1.0000 0.75000  0.25000  0.25000  Biso   1.000  O
  O10      1.0000 0.25000  0.27472  0.75000  Biso   1.000  O
  O11      1.0000 0.25000  0.75000  0.75000  Biso   1.000  O
  O12      1.0000 0.75000  0.72528  0.25000  Biso   1.000  O
  O13      1.0000 0.25000  0.72528  0.25000  Biso   1.000  O
  O14      1.0000 0.75000  0.75000  0.75000  Biso   1.000  O
  O15      1.0000 0.25000  0.25000  0.25000  Biso   1.000  O
  O16      1.0000 0.75000  0.27472  0.75000  Biso   1.000  O
  O17      1.0000 0.00000  0.40374  0.01245  Biso   1.000  O
  O18      1.0000 0.50000  0.40374  0.48755  Biso   1.000  O
  O19      1.0000 0.00000  0.59626  0.98755  Biso   1.000  O
  O20      1.0000 0.50000  0.59626  0.51245  Biso   1.000  O
