data_image0
_cell_length_a       5.55277
_cell_length_b       15.1811
_cell_length_c       5.55277
_cell_angle_alpha    90
_cell_angle_beta     90
_cell_angle_gamma    90

loop_
  _atom_site_label
  _atom_site_occupancy
  _atom_site_fract_x
  _atom_site_fract_y
  _atom_site_fract_z
  _atom_site_thermal_displace_type
  _atom_site_B_iso_or_equiv
  _atom_site_type_symbol
  K1       1.0000 0.25000  0.50000  0.78764  Biso   1.000  K
  K2       1.0000 0.75000  0.50000  0.21236  Biso   1.000  K
  Pb1      1.0000 0.25000  0.14674  0.73757  Biso   1.000  Pb
  Pb2      1.0000 0.75000  0.14674  0.26243  Biso   1.000  Pb
  Pb3      1.0000 0.75000  0.85326  0.26243  Biso   1.000  Pb
  Pb4      1.0000 0.25000  0.85326  0.73757  Biso   1.000  Pb
  Nb1      1.0000 0.75000  0.00000  0.74969  Biso   1.000  Nb
  Nb2      1.0000 0.25000  0.00000  0.25031  Biso   1.000  Nb
  Ta1      1.0000 0.75000  0.28716  0.75582  Biso   1.000  Ta
  Ta2      1.0000 0.25000  0.28716  0.24418  Biso   1.000  Ta
  Ta3      1.0000 0.75000  0.71284  0.75582  Biso   1.000  Ta
  Ta4      1.0000 0.25000  0.71284  0.24418  Biso   1.000  Ta
  O1       1.0000 0.50000  0.00000  0.00000  Biso   1.000  O
  O2       1.0000 0.00000  0.00000  0.50000  Biso   1.000  O
  O3       1.0000 0.00000  0.00000  0.00000  Biso   1.000  O
  O4       1.0000 0.50000  0.00000  0.50000  Biso   1.000  O
  O5       1.0000 0.75000  0.13024  0.74423  Biso   1.000  O
  O6       1.0000 0.25000  0.13024  0.25577  Biso   1.000  O
  O7       1.0000 0.75000  0.86976  0.74423  Biso   1.000  O
  O8       1.0000 0.25000  0.86976  0.25577  Biso   1.000  O
  O9       1.0000 0.50000  0.25367  0.00000  Biso   1.000  O
  O10      1.0000 0.00000  0.27105  0.50000  Biso   1.000  O
  O11      1.0000 0.00000  0.72895  0.50000  Biso   1.000  O
  O12      1.0000 0.50000  0.74633  0.00000  Biso   1.000  O
  O13      1.0000 0.00000  0.74633  0.00000  Biso   1.000  O
  O14      1.0000 0.50000  0.72895  0.50000  Biso   1.000  O
  O15      1.0000 0.00000  0.25367  0.00000  Biso   1.000  O
  O16      1.0000 0.50000  0.27105  0.50000  Biso   1.000  O
  O17      1.0000 0.75000  0.40374  0.76564  Biso   1.000  O
  O18      1.0000 0.25000  0.40374  0.23436  Biso   1.000  O
  O19      1.0000 0.75000  0.59626  0.76564  Biso   1.000  O
  O20      1.0000 0.25000  0.59626  0.23436  Biso   1.000  O
