data_image0
_cell_length_a       15.6806
_cell_length_b       15.6806
_cell_length_c       3.9264
_cell_angle_alpha    90
_cell_angle_beta     90
_cell_angle_gamma    150.998

loop_
  _atom_site_label
  _atom_site_occupancy
  _atom_site_fract_x
  _atom_site_fract_y
  _atom_site_fract_z
  _atom_site_thermal_displace_type
  _atom_site_B_iso_or_equiv
  _atom_site_type_symbol
  K1       1.0000 0.72047  0.27953  0.00000  Biso   1.000  K
  K2       1.0000 0.27953  0.72047  0.00000  Biso   1.000  K
  Pb1      1.0000 0.92492  0.07508  0.00000  Biso   1.000  Pb
  Pb2      1.0000 0.42834  0.57166  0.00000  Biso   1.000  Pb
  Pb3      1.0000 0.57166  0.42834  0.00000  Biso   1.000  Pb
  Pb4      1.0000 0.07508  0.92492  0.00000  Biso   1.000  Pb
  Nb1      1.0000 0.75090  0.75090  0.50000  Biso   1.000  Nb
  Nb2      1.0000 0.24910  0.24910  0.50000  Biso   1.000  Nb
  Ta1      1.0000 0.60379  0.89095  0.50000  Biso   1.000  Ta
  Ta2      1.0000 0.10905  0.39621  0.50000  Biso   1.000  Ta
  Ta3      1.0000 0.89095  0.60379  0.50000  Biso   1.000  Ta
  Ta4      1.0000 0.39621  0.10905  0.50000  Biso   1.000  Ta
  O1       1.0000 -0.00000  0.00000  0.50000  Biso   1.000  O
  O2       1.0000 0.50000  0.50000  0.50000  Biso   1.000  O
  O3       1.0000 0.74963  0.74963  0.00000  Biso   1.000  O
  O4       1.0000 0.25037  0.25037  0.00000  Biso   1.000  O
  O5       1.0000 0.68788  0.81812  0.50000  Biso   1.000  O
  O6       1.0000 0.18188  0.31212  0.50000  Biso   1.000  O
  O7       1.0000 0.81812  0.68788  0.50000  Biso   1.000  O
  O8       1.0000 0.31212  0.18188  0.50000  Biso   1.000  O
  O9       1.0000 0.86257  0.13743  0.50000  Biso   1.000  O
  O10      1.0000 0.37507  0.62493  0.50000  Biso   1.000  O
  O11      1.0000 0.62493  0.37507  0.50000  Biso   1.000  O
  O12      1.0000 0.13743  0.86257  0.50000  Biso   1.000  O
  O13      1.0000 0.88050  0.61814  0.00000  Biso   1.000  O
  O14      1.0000 0.38186  0.11950  0.00000  Biso   1.000  O
  O15      1.0000 0.61814  0.88050  0.00000  Biso   1.000  O
  O16      1.0000 0.11950  0.38186  0.00000  Biso   1.000  O
  O17      1.0000 0.53674  0.94048  0.50000  Biso   1.000  O
  O18      1.0000 0.05952  0.46326  0.50000  Biso   1.000  O
  O19      1.0000 0.94048  0.53674  0.50000  Biso   1.000  O
  O20      1.0000 0.46326  0.05952  0.50000  Biso   1.000  O
