data_image0
_cell_length_a       7.8528
_cell_length_b       3.9264
_cell_length_c       15.1811
_cell_angle_alpha    90
_cell_angle_beta     90
_cell_angle_gamma    90

loop_
  _atom_site_label
  _atom_site_occupancy
  _atom_site_fract_x
  _atom_site_fract_y
  _atom_site_fract_z
  _atom_site_thermal_displace_type
  _atom_site_B_iso_or_equiv
  _atom_site_type_symbol
  K1       1.0000 0.25000  0.00000  0.46091  Biso   1.000  K
  K2       1.0000 0.75000  0.00000  0.53909  Biso   1.000  K
  Pb1      1.0000 0.25000  0.00000  0.85020  Biso   1.000  Pb
  Pb2      1.0000 0.75000  0.00000  0.85632  Biso   1.000  Pb
  Pb3      1.0000 0.75000  0.00000  0.14980  Biso   1.000  Pb
  Pb4      1.0000 0.25000  0.00000  0.14368  Biso   1.000  Pb
  Nb1      1.0000 0.00000  0.50000  0.00000  Biso   1.000  Nb
  Nb2      1.0000 0.50000  0.50000  0.00000  Biso   1.000  Nb
  Ta1      1.0000 0.99756  0.50000  0.71284  Biso   1.000  Ta
  Ta2      1.0000 0.50244  0.50000  0.71284  Biso   1.000  Ta
  Ta3      1.0000 0.00244  0.50000  0.28716  Biso   1.000  Ta
  Ta4      1.0000 0.49756  0.50000  0.28716  Biso   1.000  Ta
  O1       1.0000 0.25000  0.50000  0.02149  Biso   1.000  O
  O2       1.0000 0.75000  0.50000  0.97851  Biso   1.000  O
  O3       1.0000 0.00000  0.00000  0.00000  Biso   1.000  O
  O4       1.0000 0.50000  0.00000  0.00000  Biso   1.000  O
  O5       1.0000 0.00972  0.50000  0.86976  Biso   1.000  O
  O6       1.0000 0.49028  0.50000  0.86976  Biso   1.000  O
  O7       1.0000 0.99028  0.50000  0.13024  Biso   1.000  O
  O8       1.0000 0.50972  0.50000  0.13024  Biso   1.000  O
  O9       1.0000 0.25000  0.50000  0.71755  Biso   1.000  O
  O10      1.0000 0.75000  0.50000  0.75773  Biso   1.000  O
  O11      1.0000 0.75000  0.50000  0.28245  Biso   1.000  O
  O12      1.0000 0.25000  0.50000  0.24227  Biso   1.000  O
  O13      1.0000 0.00125  0.00000  0.26236  Biso   1.000  O
  O14      1.0000 0.49875  0.00000  0.26236  Biso   1.000  O
  O15      1.0000 0.99875  0.00000  0.73764  Biso   1.000  O
  O16      1.0000 0.50125  0.00000  0.73764  Biso   1.000  O
  O17      1.0000 0.98693  0.50000  0.59626  Biso   1.000  O
  O18      1.0000 0.51307  0.50000  0.59626  Biso   1.000  O
  O19      1.0000 0.01307  0.50000  0.40374  Biso   1.000  O
  O20      1.0000 0.48693  0.50000  0.40374  Biso   1.000  O
