data_image0
_cell_length_a       3.9264
_cell_length_b       3.9264
_cell_length_c       30.3622
_cell_angle_alpha    90
_cell_angle_beta     90
_cell_angle_gamma    90

loop_
  _atom_site_label
  _atom_site_occupancy
  _atom_site_fract_x
  _atom_site_fract_y
  _atom_site_fract_z
  _atom_site_thermal_displace_type
  _atom_site_B_iso_or_equiv
  _atom_site_type_symbol
  K1       1.0000 0.54947  0.45053  0.25000  Biso   1.000  K
  K2       1.0000 0.45053  0.54947  0.75000  Biso   1.000  K
  Pb1      1.0000 0.49906  0.50094  0.07337  Biso   1.000  Pb
  Pb2      1.0000 0.50094  0.49906  0.57337  Biso   1.000  Pb
  Pb3      1.0000 0.50094  0.49906  0.92663  Biso   1.000  Pb
  Pb4      1.0000 0.49906  0.50094  0.42663  Biso   1.000  Pb
  Nb1      1.0000 0.00000  0.00000  0.00000  Biso   1.000  Nb
  Nb2      1.0000 0.00000  0.00000  0.50000  Biso   1.000  Nb
  Ta1      1.0000 0.99723  0.00277  0.14358  Biso   1.000  Ta
  Ta2      1.0000 0.00277  0.99723  0.64358  Biso   1.000  Ta
  Ta3      1.0000 0.00277  0.99723  0.85642  Biso   1.000  Ta
  Ta4      1.0000 0.99723  0.00277  0.35642  Biso   1.000  Ta
  O1       1.0000 0.00000  0.50000  0.00000  Biso   1.000  O
  O2       1.0000 0.00000  0.50000  0.50000  Biso   1.000  O
  O3       1.0000 0.50000  0.00000  0.00000  Biso   1.000  O
  O4       1.0000 0.50000  0.00000  0.50000  Biso   1.000  O
  O5       1.0000 0.99938  0.00062  0.06512  Biso   1.000  O
  O6       1.0000 0.00062  0.99938  0.56512  Biso   1.000  O
  O7       1.0000 0.00062  0.99938  0.93488  Biso   1.000  O
  O8       1.0000 0.99938  0.00062  0.43488  Biso   1.000  O
  O9       1.0000 0.99902  0.50097  0.13118  Biso   1.000  O
  O10      1.0000 0.00098  0.49903  0.63118  Biso   1.000  O
  O11      1.0000 0.00098  0.49903  0.86882  Biso   1.000  O
  O12      1.0000 0.99902  0.50097  0.36882  Biso   1.000  O
  O13      1.0000 0.50097  0.99902  0.86882  Biso   1.000  O
  O14      1.0000 0.49903  0.00098  0.36882  Biso   1.000  O
  O15      1.0000 0.49903  0.00098  0.13118  Biso   1.000  O
  O16      1.0000 0.50097  0.99902  0.63118  Biso   1.000  O
  O17      1.0000 0.99599  0.00401  0.20187  Biso   1.000  O
  O18      1.0000 0.00401  0.99599  0.70187  Biso   1.000  O
  O19      1.0000 0.00401  0.99599  0.79813  Biso   1.000  O
  O20      1.0000 0.99599  0.00401  0.29813  Biso   1.000  O
