data_image0
_cell_length_a       3.90481
_cell_length_b       15.1447
_cell_length_c       3.90481
_cell_angle_alpha    90
_cell_angle_beta     90
_cell_angle_gamma    90

loop_
  _atom_site_label
  _atom_site_occupancy
  _atom_site_fract_x
  _atom_site_fract_y
  _atom_site_fract_z
  _atom_site_thermal_displace_type
  _atom_site_B_iso_or_equiv
  _atom_site_type_symbol
  K1       1.0000 0.50000  0.50000  0.50000  Biso   1.000  K
  Ca1      1.0000 0.50000  0.85190  0.52223  Biso   1.000  Ca
  Ca2      1.0000 0.50000  0.14810  0.52223  Biso   1.000  Ca
  Nb1      1.0000 0.00000  0.00000  0.01102  Biso   1.000  Nb
  Nb2      1.0000 0.00000  0.72234  0.00228  Biso   1.000  Nb
  Nb3      1.0000 0.00000  0.27766  0.00228  Biso   1.000  Nb
  O1       1.0000 0.50000  0.00000  0.94250  Biso   1.000  O
  O2       1.0000 0.00000  0.00000  0.48286  Biso   1.000  O
  O3       1.0000 0.00000  0.87184  0.98832  Biso   1.000  O
  O4       1.0000 0.00000  0.12816  0.98832  Biso   1.000  O
  O5       1.0000 0.50000  0.75010  0.00000  Biso   1.000  O
  O6       1.0000 0.50000  0.24990  0.00000  Biso   1.000  O
  O7       1.0000 0.00000  0.24990  0.49879  Biso   1.000  O
  O8       1.0000 0.00000  0.75010  0.49879  Biso   1.000  O
  O9       1.0000 0.00000  0.60536  0.99861  Biso   1.000  O
  O10      1.0000 0.00000  0.39464  0.99861  Biso   1.000  O
