data_image0
_cell_length_a       7.80962
_cell_length_b       3.90481
_cell_length_c       15.1447
_cell_angle_alpha    90
_cell_angle_beta     90
_cell_angle_gamma    90

loop_
  _atom_site_label
  _atom_site_occupancy
  _atom_site_fract_x
  _atom_site_fract_y
  _atom_site_fract_z
  _atom_site_thermal_displace_type
  _atom_site_B_iso_or_equiv
  _atom_site_type_symbol
  K1       1.0000 0.75000  0.50000  0.50125  Biso   1.000  K
  K2       1.0000 0.25000  0.50000  0.49875  Biso   1.000  K
  Ca1      1.0000 0.75000  0.50000  0.14233  Biso   1.000  Ca
  Ca2      1.0000 0.25000  0.50000  0.15387  Biso   1.000  Ca
  Ca3      1.0000 0.25000  0.50000  0.85767  Biso   1.000  Ca
  Ca4      1.0000 0.75000  0.50000  0.84613  Biso   1.000  Ca
  Nb1      1.0000 0.00000  0.00000  0.00000  Biso   1.000  Nb
  Nb2      1.0000 0.50000  0.00000  0.00000  Biso   1.000  Nb
  Nb3      1.0000 0.99932  0.00000  0.27766  Biso   1.000  Nb
  Nb4      1.0000 0.50068  0.00000  0.27766  Biso   1.000  Nb
  Nb5      1.0000 0.00068  0.00000  0.72234  Biso   1.000  Nb
  Nb6      1.0000 0.49932  0.00000  0.72234  Biso   1.000  Nb
  O1       1.0000 0.75000  0.00000  0.04257  Biso   1.000  O
  O2       1.0000 0.25000  0.00000  0.95743  Biso   1.000  O
  O3       1.0000 0.00000  0.50000  0.00000  Biso   1.000  O
  O4       1.0000 0.50000  0.50000  0.00000  Biso   1.000  O
  O5       1.0000 0.01666  0.00000  0.12816  Biso   1.000  O
  O6       1.0000 0.48334  0.00000  0.12816  Biso   1.000  O
  O7       1.0000 0.98334  0.00000  0.87184  Biso   1.000  O
  O8       1.0000 0.51666  0.00000  0.87184  Biso   1.000  O
  O9       1.0000 0.75000  0.00000  0.23104  Biso   1.000  O
  O10      1.0000 0.25000  0.00000  0.26876  Biso   1.000  O
  O11      1.0000 0.25000  0.00000  0.76896  Biso   1.000  O
  O12      1.0000 0.75000  0.00000  0.73124  Biso   1.000  O
  O13      1.0000 0.00200  0.50000  0.75010  Biso   1.000  O
  O14      1.0000 0.49800  0.50000  0.75010  Biso   1.000  O
  O15      1.0000 0.99800  0.50000  0.24990  Biso   1.000  O
  O16      1.0000 0.50200  0.50000  0.24990  Biso   1.000  O
  O17      1.0000 0.99568  0.00000  0.39464  Biso   1.000  O
  O18      1.0000 0.50432  0.00000  0.39464  Biso   1.000  O
  O19      1.0000 0.00432  0.00000  0.60536  Biso   1.000  O
  O20      1.0000 0.49568  0.00000  0.60536  Biso   1.000  O
