data_image0
_cell_length_a       3.90481
_cell_length_b       3.90481
_cell_length_c       30.2894
_cell_angle_alpha    90
_cell_angle_beta     90
_cell_angle_gamma    90

loop_
  _atom_site_label
  _atom_site_occupancy
  _atom_site_fract_x
  _atom_site_fract_y
  _atom_site_fract_z
  _atom_site_thermal_displace_type
  _atom_site_B_iso_or_equiv
  _atom_site_type_symbol
  K1       1.0000 0.50000  0.50000  0.00000  Biso   1.000  K
  K2       1.0000 0.50000  0.50000  0.50000  Biso   1.000  K
  Ca1      1.0000 0.48446  0.51554  0.82405  Biso   1.000  Ca
  Ca2      1.0000 0.51554  0.48446  0.32405  Biso   1.000  Ca
  Ca3      1.0000 0.48446  0.51554  0.67595  Biso   1.000  Ca
  Ca4      1.0000 0.51554  0.48446  0.17595  Biso   1.000  Ca
  Nb1      1.0000 0.99237  0.00763  0.75000  Biso   1.000  Nb
  Nb2      1.0000 0.00763  0.99237  0.25000  Biso   1.000  Nb
  Nb3      1.0000 0.99853  0.00147  0.88883  Biso   1.000  Nb
  Nb4      1.0000 0.00147  0.99853  0.38883  Biso   1.000  Nb
  Nb5      1.0000 0.99853  0.00147  0.61117  Biso   1.000  Nb
  Nb6      1.0000 0.00147  0.99853  0.11117  Biso   1.000  Nb
  O1       1.0000 0.04073  0.48775  0.75000  Biso   1.000  O
  O2       1.0000 0.95927  0.51225  0.25000  Biso   1.000  O
  O3       1.0000 0.51225  0.95927  0.75000  Biso   1.000  O
  O4       1.0000 0.48775  0.04073  0.25000  Biso   1.000  O
  O5       1.0000 0.00840  0.99160  0.81408  Biso   1.000  O
  O6       1.0000 0.99160  0.00840  0.31408  Biso   1.000  O
  O7       1.0000 0.00840  0.99160  0.68592  Biso   1.000  O
  O8       1.0000 0.99160  0.00840  0.18592  Biso   1.000  O
  O9       1.0000 0.00015  0.49901  0.87495  Biso   1.000  O
  O10      1.0000 0.99985  0.50099  0.37495  Biso   1.000  O
  O11      1.0000 0.00015  0.49901  0.62505  Biso   1.000  O
  O12      1.0000 0.99985  0.50099  0.12505  Biso   1.000  O
  O13      1.0000 0.50099  0.99985  0.62505  Biso   1.000  O
  O14      1.0000 0.49901  0.00015  0.12505  Biso   1.000  O
  O15      1.0000 0.50099  0.99985  0.87495  Biso   1.000  O
  O16      1.0000 0.49901  0.00015  0.37495  Biso   1.000  O
  O17      1.0000 0.00111  0.99889  0.94732  Biso   1.000  O
  O18      1.0000 0.99889  0.00111  0.44732  Biso   1.000  O
  O19      1.0000 0.00111  0.99889  0.55268  Biso   1.000  O
  O20      1.0000 0.99889  0.00111  0.05268  Biso   1.000  O
